LAMMPS (22 Jul 2025)
# Compute elastic constant tensor for a crystal at finite temperature
#
# WARNING: This script attempts to measure small differences in
# statistical averages generated by finite temperature MD simulations.
# This creates many more opportunities for errors to occur, compared
# to the zero temperature version provided in examples/ELASTIC.
# Hence, it is always a good idea to start with the zero temperature
# calculation, before attempting to use this script.
#
# Written by Aidan Thompson (Sandia, athomps@sandia.gov)
#
#  This script uses the following three include files.
#
#   init.mod      (must be modified for different crystal structures)
# 	       	  Define units, MD parameters, deformation parameters,
#		  and initial configuration of the atoms and simulation cell.
#
#
#   potential.mod    (must be modified for different pair styles)
# 		     Define pair style and other attributes
#		     not stored in restart file
#
#
#   displace.mod    (displace.mod should not need to be modified)
# 		    Perform positive and negative box displacements
# 		    It uses the resultant changes
#		    in stress to compute one
# 		    row of the elastic stiffness tensor
#
#		    Inputs variables:
#		    	   dir = the Voigt deformation component
#		    		    (1,2,3,4,5,6)
#		    Global constants:
#       	    	   up = the deformation magnitude (strain units)
#       		   cfac = conversion from LAMMPS pressure units to
#               	   output units for elastic constants
#
#
#  To run this on a different system, it should only be necessary to
#  modify the files init.mod and potential.mod. In order to calculate
#  the elastic constants correctly, care must be taken to specify
#  the correct units in init.mod (units, cfac and cunits). It is also
#  important to verify that the MD sampling of stress components
#  is generating accurate statistical averages.
#  One indication of this is that the elastic constants are insensitive
#  check for finite size effects.
#

include init.mod
# NOTE: This script can be modified for different atomic structures,
# units, etc. See in.elastic for more info.
#

# Define the finite deformation size. Try several values of this
# variable to verify that results do not depend on it.
variable up equal 1.0e-2

# metal units, elastic constants in GPa
units		metal
variable cfac equal 1.0e-4
variable cunits string GPa

# Define MD parameters
variable nevery equal 400                  # sampling interval
variable nrepeat equal 400                 # number of samples
variable nfreq equal 400*400
variable nthermo equal 160000
variable nequil equal 10*160000
variable nrun equal 3*160000
variable temp equal 300.0                # temperature of initial sample
variable timestep equal 0.001             # timestep
variable mass1 equal 26.981539              # mass
variable adiabatic equal 0                # adiabatic (1) or isothermal (2)
variable tdamp equal 0.01                 # time constant for thermostat
variable seed equal 123457                # seed for thermostat
variable pdamp equal 0.1
# generate the box and atom positions using a fcc lattice
variable a equal 4.05

boundary        p p p

lattice        fcc $a
lattice        fcc 4.05
Lattice spacing in x,y,z = 4.05 4.05 4.05
region         box prism 0 10.0 0 10.0 0 10.0 0.0 0.0 0.0
create_box     1 box
Created triclinic box = (0 0 0) to (40.5 40.5 40.5) with tilt (0 0 0)
create_atoms   1 box
Created 4000 atoms

mass 1 26.981539
velocity        all create 300 87287

# Compute initial state

variable thermostat equal 1
include potential.mod
# NOTE: This script can be modified for different pair styles
# See in.elastic for more info.

# we must undefine any fix ave/* fix before using reset_timestep
if "$(is_defined(fix,avp))" then "unfix avp"
reset_timestep 0

# Choose potential

pair_style hybrid/overlay tabgap eam/fs
pair_coeff * * tabgap Al.tabgap Al no yes
Reading tabgap potential file Al.tabgap with DATE: 2024-02-04
pair_coeff * * eam/fs Al.eam.fs Al
Reading eam/fs potential file Al.eam.fs with DATE: 2024-02-04

# Setup neighbor style
neighbor 1.0 nsq
neigh_modify once no every 1 delay 0 check yes

# Setup output

fix avp all ave/time  400 400 160000 c_thermo_press mode vector
thermo		160000
thermo_style custom step temp pe press f_avp[1] f_avp[2] f_avp[3] f_avp[4] f_avp[5] f_avp[6]
thermo_modify norm no

# Setup MD

timestep 0.001
fix 4 all nve
fix 5 all langevin 300 300 0.01 123457

run 1600000
Step          Temp          PotEng         Press         f_avp[1]       f_avp[2]       f_avp[3]       f_avp[4]       f_avp[5]       f_avp[6]
0   299.99999     -14974.89      -2903.9736      0              0              0              0              0              0
Averages over the last 6 of 11 rows, steps 800000 to 1600000:
Temp PotEng Press f_avp[1] f_avp[2] f_avp[3] f_avp[4] f_avp[5] f_avp[6]
302.53 -14819.9 9915.13 9950.54 9954.71 9955.05 1.79059 0.895835 4.84772
Loop time of 3137.49 on 40 procs for 1600000 steps with 4000 atoms

fix 2  all npt temp 300 300 0.01 drag 1.0 pchain 8 aniso 0.0 0.0 0.1
run 1600000
For more information see https://docs.lammps.org/err0032 (src/modify.cpp:298)
Step          Temp          PotEng         Press         f_avp[1]       f_avp[2]       f_avp[3]       f_avp[4]       f_avp[5]       f_avp[6]
1600000   305.33034     -14819.811      9960.028       9947.5746      9947.4095      9944.9915     -1.2964198     -9.5045874     -0.4673137
Averages over the last 6 of 11 rows, steps 2400000 to 3200000:
Temp PotEng Press f_avp[1] f_avp[2] f_avp[3] f_avp[4] f_avp[5] f_avp[6]
576.544 -14648.6 170.52 -69.5152 -79.5148 -79.5262 -4.78188 0.953126 -0.0296188
Loop time of 3246.22 on 40 procs for 1600000 steps with 4000 atoms

unfix 2

variable thermostat equal 1

print 1
1

include potential.mod
# NOTE: This script can be modified for different pair styles
# See in.elastic for more info.

# we must undefine any fix ave/* fix before using reset_timestep
if "$(is_defined(fix,avp))" then "unfix avp"
unfix avp
reset_timestep 0

# Choose potential

pair_style hybrid/overlay tabgap eam/fs
pair_coeff * * tabgap Al.tabgap Al no yes
Reading tabgap potential file Al.tabgap with DATE: 2024-02-04
pair_coeff * * eam/fs Al.eam.fs Al
Reading eam/fs potential file Al.eam.fs with DATE: 2024-02-04

# Setup neighbor style
neighbor 1.0 nsq
neigh_modify once no every 1 delay 0 check yes

# Setup output

fix avp all ave/time  400 400 160000 c_thermo_press mode vector
thermo		160000
thermo_style custom step temp pe press f_avp[1] f_avp[2] f_avp[3] f_avp[4] f_avp[5] f_avp[6]
thermo_modify norm no

# Setup MD

timestep 0.001
fix 4 all nve
fix 5 all langevin 300 300 0.01 123457

run 480000
Step          Temp          PotEng         Press         f_avp[1]       f_avp[2]       f_avp[3]       f_avp[4]       f_avp[5]       f_avp[6]
0   582.58949     -14647.205      410.89487      0              0              0              0              0              0
Loop time of 892.938 on 40 procs for 480000 steps with 4000 atoms

variable pxx0 equal f_avp[1]
variable pyy0 equal f_avp[2]
variable pzz0 equal f_avp[3]
variable pxy0 equal f_avp[4]
variable pxz0 equal f_avp[5]
variable pyz0 equal f_avp[6]

variable tmp equal lx
variable lx0 equal 41.0039237960889
variable tmp equal ly
variable ly0 equal 40.9607948712564
variable tmp equal lz
variable lz0 equal 41.0194365867588

# These formulas define the derivatives w.r.t. strain components
# Constants uses $, variables use v_
variable d1 equal -(v_pxx1--14661.4134770977)/(v_delta/v_len0)*0.0001
variable d2 equal -(v_pyy1--14292.5471938465)/(v_delta/v_len0)*0.0001
variable d3 equal -(v_pzz1--14799.8695203482)/(v_delta/v_len0)*0.0001
variable d4 equal -(v_pyz1--5.8847536855835)/(v_delta/v_len0)*0.0001
variable d5 equal -(v_pxz1--10.9895819090502)/(v_delta/v_len0)*0.0001
variable d6 equal -(v_pxy1--3.82603346176162)/(v_delta/v_len0)*0.0001

# Write restart
write_restart restart.equil
System init for write_restart ...

# uxx Perturbation

variable dir equal 1
include displace.mod
# NOTE: This script should not need to be
# modified. See in.elastic for more info.
#
# Find which reference length to use

variable len0 equal 41.0039237960889

# Reset box and simulation parameters

clear
box tilt large

The 'box' command has been removed and will be ignored

read_restart restart.equil
Reading restart file ...
  restart file = 22 Jul 2025, LAMMPS = 22 Jul 2025
  restoring atom style atomic from restart
  triclinic box = (-0.2519619 -0.23039744 -0.25971829) to (40.751962 40.730397 40.759718) with tilt (0 0 0)
  pair style hybrid/overlay stores no restart info
  4000 atoms
  read_restart CPU = 0.003 seconds
include potential.mod
# NOTE: This script can be modified for different pair styles
# See in.elastic for more info.

# we must undefine any fix ave/* fix before using reset_timestep
if "$(is_defined(fix,avp))" then "unfix avp"
reset_timestep 0

# Choose potential

pair_style hybrid/overlay tabgap eam/fs
pair_coeff * * tabgap Al.tabgap Al no yes
Reading tabgap potential file Al.tabgap with DATE: 2024-02-04
pair_coeff * * eam/fs Al.eam.fs Al
Reading eam/fs potential file Al.eam.fs with DATE: 2024-02-04

# Setup neighbor style
neighbor 1.0 nsq
neigh_modify once no every 1 delay 0 check yes

# Setup output

fix avp all ave/time  400 400 160000 c_thermo_press mode vector
thermo		160000
thermo_style custom step temp pe press f_avp[1] f_avp[2] f_avp[3] f_avp[4] f_avp[5] f_avp[6]
thermo_modify norm no

# Setup MD

timestep 0.001
fix 4 all nve
fix 5 all langevin 300 300 0.01 123457

# Negative deformation

variable delta equal -0.01*41.0039237960889
variable deltaxy equal -0.01*xy
variable deltaxz equal -0.01*xz
variable deltayz equal -0.01*yz
change_box all x delta 0 -0.410039237960889 xy delta 0 xz delta 0 remap units box
Changing box ...
  triclinic box = (-0.2519619 -0.23039744 -0.25971829) to (40.341923 40.730397 40.759718) with tilt (0 0 0)
  triclinic box = (-0.2519619 -0.23039744 -0.25971829) to (40.341923 40.730397 40.759718) with tilt (0 0 0)
  triclinic box = (-0.2519619 -0.23039744 -0.25971829) to (40.341923 40.730397 40.759718) with tilt (0 0 0)

# Run MD

run 1600000
Step          Temp          PotEng         Press         f_avp[1]       f_avp[2]       f_avp[3]       f_avp[4]       f_avp[5]       f_avp[6]
0   302.3876      -14795.581     -7630.4228      0              0              0              0              0              0
Averages over the last 6 of 11 rows, steps 800000 to 1600000:
Temp PotEng Press f_avp[1] f_avp[2] f_avp[3] f_avp[4] f_avp[5] f_avp[6]
299.848 -14801.2 -8188.21 -5713.28 -9205.26 -9767.21 -1.85863 0.605527 2.49194
Loop time of 3043.95 on 40 procs for 1600000 steps with 4000 atoms

include potential.mod
# NOTE: This script can be modified for different pair styles
# See in.elastic for more info.

# we must undefine any fix ave/* fix before using reset_timestep
if "$(is_defined(fix,avp))" then "unfix avp"
unfix avp
reset_timestep 0

# Choose potential

pair_style hybrid/overlay tabgap eam/fs
pair_coeff * * tabgap Al.tabgap Al no yes
Reading tabgap potential file Al.tabgap with DATE: 2024-02-04
pair_coeff * * eam/fs Al.eam.fs Al
Reading eam/fs potential file Al.eam.fs with DATE: 2024-02-04

# Setup neighbor style
neighbor 1.0 nsq
neigh_modify once no every 1 delay 0 check yes

# Setup output

fix avp all ave/time  400 400 160000 c_thermo_press mode vector
thermo		160000
thermo_style custom step temp pe press f_avp[1] f_avp[2] f_avp[3] f_avp[4] f_avp[5] f_avp[6]
thermo_modify norm no

# Setup MD

timestep 0.001
fix 4 all nve
fix 5 all langevin 300 300 0.01 123457

run 480000
Step          Temp          PotEng         Press         f_avp[1]       f_avp[2]       f_avp[3]       f_avp[4]       f_avp[5]       f_avp[6]
0   296.63024     -14801.377     -8295.2673      0              0              0              0              0              0
Loop time of 908.569 on 40 procs for 480000 steps with 4000 atoms

# Obtain new stress tensor

variable pxx1 equal f_avp[1]
variable pyy1 equal f_avp[2]
variable pzz1 equal f_avp[3]
variable pxy1 equal f_avp[4]
variable pxz1 equal f_avp[5]
variable pyz1 equal f_avp[6]

# Compute elastic constant from pressure tensor

variable C1neg equal 89.6082564203089
variable C2neg equal 50.6141760435658
variable C3neg equal 50.1750347922624
variable C4neg equal 0.170397602354071
variable C5neg equal -0.008506274241036
variable C6neg equal 0.0564263859555533

# Reset box and simulation parameters

clear
box tilt large

The 'box' command has been removed and will be ignored

read_restart restart.equil
Reading restart file ...
  restart file = 22 Jul 2025, LAMMPS = 22 Jul 2025
  restoring atom style atomic from restart
  triclinic box = (-0.2519619 -0.23039744 -0.25971829) to (40.751962 40.730397 40.759718) with tilt (0 0 0)
  pair style hybrid/overlay stores no restart info
  4000 atoms
  read_restart CPU = 0.004 seconds
include potential.mod
# NOTE: This script can be modified for different pair styles
# See in.elastic for more info.

# we must undefine any fix ave/* fix before using reset_timestep
if "$(is_defined(fix,avp))" then "unfix avp"
reset_timestep 0

# Choose potential

pair_style hybrid/overlay tabgap eam/fs
pair_coeff * * tabgap Al.tabgap Al no yes
Reading tabgap potential file Al.tabgap with DATE: 2024-02-04
pair_coeff * * eam/fs Al.eam.fs Al
Reading eam/fs potential file Al.eam.fs with DATE: 2024-02-04

# Setup neighbor style
neighbor 1.0 nsq
neigh_modify once no every 1 delay 0 check yes

# Setup output

fix avp all ave/time  400 400 160000 c_thermo_press mode vector
thermo		160000
thermo_style custom step temp pe press f_avp[1] f_avp[2] f_avp[3] f_avp[4] f_avp[5] f_avp[6]
thermo_modify norm no

# Setup MD

timestep 0.001
fix 4 all nve
fix 5 all langevin 300 300 0.01 123457

# Positive deformation

variable delta equal 0.01*41.0039237960889
variable deltaxy equal 0.01*xy
variable deltaxz equal 0.01*xz
variable deltayz equal 0.01*yz
change_box all x delta 0 0.410039237960889 xy delta 0 xz delta 0 remap units box
Changing box ...
  triclinic box = (-0.2519619 -0.23039744 -0.25971829) to (41.162001 40.730397 40.759718) with tilt (0 0 0)
  triclinic box = (-0.2519619 -0.23039744 -0.25971829) to (41.162001 40.730397 40.759718) with tilt (0 0 0)
  triclinic box = (-0.2519619 -0.23039744 -0.25971829) to (41.162001 40.730397 40.759718) with tilt (0 0 0)

# Run MD

run 1600000
Step          Temp          PotEng         Press         f_avp[1]       f_avp[2]       f_avp[3]       f_avp[4]       f_avp[5]       f_avp[6]
0   302.3876      -14780.993     -20905.771      0              0              0              0              0              0
Averages over the last 6 of 11 rows, steps 800000 to 1600000:
Temp PotEng Press f_avp[1] f_avp[2] f_avp[3] f_avp[4] f_avp[5] f_avp[6]
300.461 -14775.1 -20333.6 -22605 -19011.1 -19480.5 0.589438 -0.519728 -1.5171
Loop time of 3044.21 on 40 procs for 1600000 steps with 4000 atoms

include potential.mod
# NOTE: This script can be modified for different pair styles
# See in.elastic for more info.

# we must undefine any fix ave/* fix before using reset_timestep
if "$(is_defined(fix,avp))" then "unfix avp"
unfix avp
reset_timestep 0

# Choose potential

pair_style hybrid/overlay tabgap eam/fs
pair_coeff * * tabgap Al.tabgap Al no yes
Reading tabgap potential file Al.tabgap with DATE: 2024-02-04
pair_coeff * * eam/fs Al.eam.fs Al
Reading eam/fs potential file Al.eam.fs with DATE: 2024-02-04

# Setup neighbor style
neighbor 1.0 nsq
neigh_modify once no every 1 delay 0 check yes

# Setup output

fix avp all ave/time  400 400 160000 c_thermo_press mode vector
thermo		160000
thermo_style custom step temp pe press f_avp[1] f_avp[2] f_avp[3] f_avp[4] f_avp[5] f_avp[6]
thermo_modify norm no

# Setup MD

timestep 0.001
fix 4 all nve
fix 5 all langevin 300 300 0.01 123457

run 480000
Step          Temp          PotEng         Press         f_avp[1]       f_avp[2]       f_avp[3]       f_avp[4]       f_avp[5]       f_avp[6]
0   295.76191     -14778.555     -20720.518      0              0              0              0              0              0
Loop time of 909.766 on 40 procs for 480000 steps with 4000 atoms

# Obtain new stress tensor

variable pxx1 equal f_avp[1]
variable pyy1 equal f_avp[2]
variable pzz1 equal f_avp[3]
variable pxy1 equal f_avp[4]
variable pxz1 equal f_avp[5]
variable pyz1 equal f_avp[6]

# Compute elastic constant from pressure tensor

variable C1pos equal 79.394276605765
variable C2pos equal 47.016626405106
variable C3pos equal 46.669158876231
variable C4pos equal -0.0354290702750862
variable C5pos equal -0.0166634350642554
variable C6pos equal 0.134275035779896

# Combine positive and negative

variable C11 equal 0.5*(89.6082564203089+79.394276605765)
variable C21 equal 0.5*(50.6141760435658+47.016626405106)
variable C31 equal 0.5*(50.1750347922624+46.669158876231)
variable C41 equal 0.5*(0.170397602354071+-0.0354290702750862)
variable C51 equal 0.5*(-0.008506274241036+-0.0166634350642554)
variable C61 equal 0.5*(0.0564263859555533+0.134275035779896)

# Delete dir to make sure it is not reused

variable dir delete

# uyy Perturbation

variable dir equal 2
include displace.mod
# NOTE: This script should not need to be
# modified. See in.elastic for more info.
#
# Find which reference length to use

variable len0 equal 40.9607948712564

# Reset box and simulation parameters

clear
box tilt large

The 'box' command has been removed and will be ignored

read_restart restart.equil
Reading restart file ...
  restart file = 22 Jul 2025, LAMMPS = 22 Jul 2025
  restoring atom style atomic from restart
  triclinic box = (-0.2519619 -0.23039744 -0.25971829) to (40.751962 40.730397 40.759718) with tilt (0 0 0)
  pair style hybrid/overlay stores no restart info
  4000 atoms
  read_restart CPU = 0.003 seconds
include potential.mod
# NOTE: This script can be modified for different pair styles
# See in.elastic for more info.

# we must undefine any fix ave/* fix before using reset_timestep
if "$(is_defined(fix,avp))" then "unfix avp"
reset_timestep 0

# Choose potential

pair_style hybrid/overlay tabgap eam/fs
pair_coeff * * tabgap Al.tabgap Al no yes
Reading tabgap potential file Al.tabgap with DATE: 2024-02-04
pair_coeff * * eam/fs Al.eam.fs Al
Reading eam/fs potential file Al.eam.fs with DATE: 2024-02-04

# Setup neighbor style
neighbor 1.0 nsq
neigh_modify once no every 1 delay 0 check yes

# Setup output

fix avp all ave/time  400 400 160000 c_thermo_press mode vector
thermo		160000
thermo_style custom step temp pe press f_avp[1] f_avp[2] f_avp[3] f_avp[4] f_avp[5] f_avp[6]
thermo_modify norm no

# Setup MD

timestep 0.001
fix 4 all nve
fix 5 all langevin 300 300 0.01 123457

# Negative deformation

variable delta equal -0.01*40.9607948712564
variable deltaxy equal -0.01*xy
variable deltaxz equal -0.01*xz
variable deltayz equal -0.01*yz
change_box all y delta 0 -0.409607948712564 yz delta 0 remap units box
Changing box ...
  triclinic box = (-0.2519619 -0.23039744 -0.25971829) to (40.751962 40.320789 40.759718) with tilt (0 0 0)
  triclinic box = (-0.2519619 -0.23039744 -0.25971829) to (40.751962 40.320789 40.759718) with tilt (0 0 0)

# Run MD

run 1600000
Step          Temp          PotEng         Press         f_avp[1]       f_avp[2]       f_avp[3]       f_avp[4]       f_avp[5]       f_avp[6]
0   302.3876      -14795.414     -7613.7439      0              0              0              0              0              0
Averages over the last 6 of 11 rows, steps 800000 to 1600000:
Temp PotEng Press f_avp[1] f_avp[2] f_avp[3] f_avp[4] f_avp[5] f_avp[6]
301.894 -14801.6 -8179.55 -9588.33 -5266.65 -9731.46 -5.56801 1.29401 -2.66779
Loop time of 3067.31 on 40 procs for 1600000 steps with 4000 atoms

include potential.mod
# NOTE: This script can be modified for different pair styles
# See in.elastic for more info.

# we must undefine any fix ave/* fix before using reset_timestep
if "$(is_defined(fix,avp))" then "unfix avp"
unfix avp
reset_timestep 0

# Choose potential

pair_style hybrid/overlay tabgap eam/fs
pair_coeff * * tabgap Al.tabgap Al no yes
Reading tabgap potential file Al.tabgap with DATE: 2024-02-04
pair_coeff * * eam/fs Al.eam.fs Al
Reading eam/fs potential file Al.eam.fs with DATE: 2024-02-04

# Setup neighbor style
neighbor 1.0 nsq
neigh_modify once no every 1 delay 0 check yes

# Setup output

fix avp all ave/time  400 400 160000 c_thermo_press mode vector
thermo		160000
thermo_style custom step temp pe press f_avp[1] f_avp[2] f_avp[3] f_avp[4] f_avp[5] f_avp[6]
thermo_modify norm no

# Setup MD

timestep 0.001
fix 4 all nve
fix 5 all langevin 300 300 0.01 123457

run 480000
Step          Temp          PotEng         Press         f_avp[1]       f_avp[2]       f_avp[3]       f_avp[4]       f_avp[5]       f_avp[6]
0   298.68421     -14803.517     -8377.8225      0              0              0              0              0              0
Loop time of 920.398 on 40 procs for 480000 steps with 4000 atoms

# Obtain new stress tensor

variable pxx1 equal f_avp[1]
variable pyy1 equal f_avp[2]
variable pzz1 equal f_avp[3]
variable pxy1 equal f_avp[4]
variable pxz1 equal f_avp[5]
variable pyz1 equal f_avp[6]

# Compute elastic constant from pressure tensor

variable C1neg equal 50.8979507307362
variable C2neg equal 90.4778779775843
variable C3neg equal 50.6368652023638
variable C4neg equal 0.0816631535101937
variable C5neg equal 0.19463847589599
variable C6neg equal 0.0926706405787486

# Reset box and simulation parameters

clear
box tilt large

The 'box' command has been removed and will be ignored

read_restart restart.equil
Reading restart file ...
  restart file = 22 Jul 2025, LAMMPS = 22 Jul 2025
  restoring atom style atomic from restart
  triclinic box = (-0.2519619 -0.23039744 -0.25971829) to (40.751962 40.730397 40.759718) with tilt (0 0 0)
  pair style hybrid/overlay stores no restart info
  4000 atoms
  read_restart CPU = 0.008 seconds
include potential.mod
# NOTE: This script can be modified for different pair styles
# See in.elastic for more info.

# we must undefine any fix ave/* fix before using reset_timestep
if "$(is_defined(fix,avp))" then "unfix avp"
reset_timestep 0

# Choose potential

pair_style hybrid/overlay tabgap eam/fs
pair_coeff * * tabgap Al.tabgap Al no yes
Reading tabgap potential file Al.tabgap with DATE: 2024-02-04
pair_coeff * * eam/fs Al.eam.fs Al
Reading eam/fs potential file Al.eam.fs with DATE: 2024-02-04

# Setup neighbor style
neighbor 1.0 nsq
neigh_modify once no every 1 delay 0 check yes

# Setup output

fix avp all ave/time  400 400 160000 c_thermo_press mode vector
thermo		160000
thermo_style custom step temp pe press f_avp[1] f_avp[2] f_avp[3] f_avp[4] f_avp[5] f_avp[6]
thermo_modify norm no

# Setup MD

timestep 0.001
fix 4 all nve
fix 5 all langevin 300 300 0.01 123457

# Positive deformation

variable delta equal 0.01*40.9607948712564
variable deltaxy equal 0.01*xy
variable deltaxz equal 0.01*xz
variable deltayz equal 0.01*yz
change_box all y delta 0 0.409607948712564 yz delta 0 remap units box
Changing box ...
  triclinic box = (-0.2519619 -0.23039744 -0.25971829) to (40.751962 41.140005 40.759718) with tilt (0 0 0)
  triclinic box = (-0.2519619 -0.23039744 -0.25971829) to (40.751962 41.140005 40.759718) with tilt (0 0 0)

# Run MD

run 1600000
Step          Temp          PotEng         Press         f_avp[1]       f_avp[2]       f_avp[3]       f_avp[4]       f_avp[5]       f_avp[6]
0   302.3876      -14781.148     -20927.833      0              0              0              0              0              0
Averages over the last 6 of 11 rows, steps 800000 to 1600000:
Temp PotEng Press f_avp[1] f_avp[2] f_avp[3] f_avp[4] f_avp[5] f_avp[6]
298.484 -14774.6 -20317.5 -19374.9 -22281.2 -19497.5 0.494702 3.84715 1.471
Loop time of 3055.28 on 40 procs for 1600000 steps with 4000 atoms

include potential.mod
# NOTE: This script can be modified for different pair styles
# See in.elastic for more info.

# we must undefine any fix ave/* fix before using reset_timestep
if "$(is_defined(fix,avp))" then "unfix avp"
unfix avp
reset_timestep 0

# Choose potential

pair_style hybrid/overlay tabgap eam/fs
pair_coeff * * tabgap Al.tabgap Al no yes
Reading tabgap potential file Al.tabgap with DATE: 2024-02-04
pair_coeff * * eam/fs Al.eam.fs Al
Reading eam/fs potential file Al.eam.fs with DATE: 2024-02-04

# Setup neighbor style
neighbor 1.0 nsq
neigh_modify once no every 1 delay 0 check yes

# Setup output

fix avp all ave/time  400 400 160000 c_thermo_press mode vector
thermo		160000
thermo_style custom step temp pe press f_avp[1] f_avp[2] f_avp[3] f_avp[4] f_avp[5] f_avp[6]
thermo_modify norm no

# Setup MD

timestep 0.001
fix 4 all nve
fix 5 all langevin 300 300 0.01 123457

run 480000
Step          Temp          PotEng         Press         f_avp[1]       f_avp[2]       f_avp[3]       f_avp[4]       f_avp[5]       f_avp[6]
0   290.25611     -14776.203     -20581.952      0              0              0              0              0              0
Loop time of 912.985 on 40 procs for 480000 steps with 4000 atoms

# Obtain new stress tensor

variable pxx1 equal f_avp[1]
variable pyy1 equal f_avp[2]
variable pzz1 equal f_avp[3]
variable pxy1 equal f_avp[4]
variable pxz1 equal f_avp[5]
variable pyz1 equal f_avp[6]

# Compute elastic constant from pressure tensor

variable C1pos equal 47.116663425285
variable C2pos equal 79.949872129457
variable C3pos equal 46.960554614913
variable C4pos equal -0.0573652419367124
variable C5pos equal -0.147972036574287
variable C6pos equal -0.0650172600309657

# Combine positive and negative

variable C12 equal 0.5*(50.8979507307362+47.116663425285)
variable C22 equal 0.5*(90.4778779775843+79.949872129457)
variable C32 equal 0.5*(50.6368652023638+46.960554614913)
variable C42 equal 0.5*(0.0816631535101937+-0.0573652419367124)
variable C52 equal 0.5*(0.19463847589599+-0.147972036574287)
variable C62 equal 0.5*(0.0926706405787486+-0.0650172600309657)

# Delete dir to make sure it is not reused

variable dir delete

# uzz Perturbation

variable dir equal 3
include displace.mod
# NOTE: This script should not need to be
# modified. See in.elastic for more info.
#
# Find which reference length to use

variable len0 equal 41.0194365867588

# Reset box and simulation parameters

clear
box tilt large

The 'box' command has been removed and will be ignored

read_restart restart.equil
Reading restart file ...
  restart file = 22 Jul 2025, LAMMPS = 22 Jul 2025
  restoring atom style atomic from restart
  triclinic box = (-0.2519619 -0.23039744 -0.25971829) to (40.751962 40.730397 40.759718) with tilt (0 0 0)
  pair style hybrid/overlay stores no restart info
  4000 atoms
  read_restart CPU = 0.003 seconds
include potential.mod
# NOTE: This script can be modified for different pair styles
# See in.elastic for more info.

# we must undefine any fix ave/* fix before using reset_timestep
if "$(is_defined(fix,avp))" then "unfix avp"
reset_timestep 0

# Choose potential

pair_style hybrid/overlay tabgap eam/fs
pair_coeff * * tabgap Al.tabgap Al no yes
Reading tabgap potential file Al.tabgap with DATE: 2024-02-04
pair_coeff * * eam/fs Al.eam.fs Al
Reading eam/fs potential file Al.eam.fs with DATE: 2024-02-04

# Setup neighbor style
neighbor 1.0 nsq
neigh_modify once no every 1 delay 0 check yes

# Setup output

fix avp all ave/time  400 400 160000 c_thermo_press mode vector
thermo		160000
thermo_style custom step temp pe press f_avp[1] f_avp[2] f_avp[3] f_avp[4] f_avp[5] f_avp[6]
thermo_modify norm no

# Setup MD

timestep 0.001
fix 4 all nve
fix 5 all langevin 300 300 0.01 123457

# Negative deformation

variable delta equal -0.01*41.0194365867588
variable deltaxy equal -0.01*xy
variable deltaxz equal -0.01*xz
variable deltayz equal -0.01*yz
change_box all z delta 0 -0.410194365867588 remap units box
Changing box ...
  triclinic box = (-0.2519619 -0.23039744 -0.25971829) to (40.751962 40.730397 40.349524) with tilt (0 0 0)

# Run MD

run 1600000
Step          Temp          PotEng         Press         f_avp[1]       f_avp[2]       f_avp[3]       f_avp[4]       f_avp[5]       f_avp[6]
0   302.3876      -14795.547     -7630.2096      0              0              0              0              0              0
Averages over the last 6 of 11 rows, steps 800000 to 1600000:
Temp PotEng Press f_avp[1] f_avp[2] f_avp[3] f_avp[4] f_avp[5] f_avp[6]
301.613 -14802.8 -8320.67 -9628.32 -9225.37 -5865.72 0.638652 -1.00238 -2.50984
Loop time of 3058.69 on 40 procs for 1600000 steps with 4000 atoms

include potential.mod
# NOTE: This script can be modified for different pair styles
# See in.elastic for more info.

# we must undefine any fix ave/* fix before using reset_timestep
if "$(is_defined(fix,avp))" then "unfix avp"
unfix avp
reset_timestep 0

# Choose potential

pair_style hybrid/overlay tabgap eam/fs
pair_coeff * * tabgap Al.tabgap Al no yes
Reading tabgap potential file Al.tabgap with DATE: 2024-02-04
pair_coeff * * eam/fs Al.eam.fs Al
Reading eam/fs potential file Al.eam.fs with DATE: 2024-02-04

# Setup neighbor style
neighbor 1.0 nsq
neigh_modify once no every 1 delay 0 check yes

# Setup output

fix avp all ave/time  400 400 160000 c_thermo_press mode vector
thermo		160000
thermo_style custom step temp pe press f_avp[1] f_avp[2] f_avp[3] f_avp[4] f_avp[5] f_avp[6]
thermo_modify norm no

# Setup MD

timestep 0.001
fix 4 all nve
fix 5 all langevin 300 300 0.01 123457

run 480000
Step          Temp          PotEng         Press         f_avp[1]       f_avp[2]       f_avp[3]       f_avp[4]       f_avp[5]       f_avp[6]
0   300.77068     -14806.807     -8718.3516      0              0              0              0              0              0
Loop time of 912.217 on 40 procs for 480000 steps with 4000 atoms

# Obtain new stress tensor

variable pxx1 equal f_avp[1]
variable pyy1 equal f_avp[2]
variable pzz1 equal f_avp[3]
variable pxy1 equal f_avp[4]
variable pxz1 equal f_avp[5]
variable pyz1 equal f_avp[6]

# Compute elastic constant from pressure tensor

variable C1neg equal 50.3483311872108
variable C2neg equal 50.7717723102707
variable C3neg equal 89.4756544544098
variable C4neg equal 0.0333922115429902
variable C5neg equal 0.146337197959172
variable C6neg equal 0.183136989753618

# Reset box and simulation parameters

clear
box tilt large

The 'box' command has been removed and will be ignored

read_restart restart.equil
Reading restart file ...
  restart file = 22 Jul 2025, LAMMPS = 22 Jul 2025
  restoring atom style atomic from restart
  triclinic box = (-0.2519619 -0.23039744 -0.25971829) to (40.751962 40.730397 40.759718) with tilt (0 0 0)
  pair style hybrid/overlay stores no restart info
  4000 atoms
  read_restart CPU = 0.008 seconds
include potential.mod
# NOTE: This script can be modified for different pair styles
# See in.elastic for more info.

# we must undefine any fix ave/* fix before using reset_timestep
if "$(is_defined(fix,avp))" then "unfix avp"
reset_timestep 0

# Choose potential

pair_style hybrid/overlay tabgap eam/fs
pair_coeff * * tabgap Al.tabgap Al no yes
Reading tabgap potential file Al.tabgap with DATE: 2024-02-04
pair_coeff * * eam/fs Al.eam.fs Al
Reading eam/fs potential file Al.eam.fs with DATE: 2024-02-04

# Setup neighbor style
neighbor 1.0 nsq
neigh_modify once no every 1 delay 0 check yes

# Setup output

fix avp all ave/time  400 400 160000 c_thermo_press mode vector
thermo		160000
thermo_style custom step temp pe press f_avp[1] f_avp[2] f_avp[3] f_avp[4] f_avp[5] f_avp[6]
thermo_modify norm no

# Setup MD

timestep 0.001
fix 4 all nve
fix 5 all langevin 300 300 0.01 123457

# Positive deformation

variable delta equal 0.01*41.0194365867588
variable deltaxy equal 0.01*xy
variable deltaxz equal 0.01*xz
variable deltayz equal 0.01*yz
change_box all z delta 0 0.410194365867588 remap units box
Changing box ...
  triclinic box = (-0.2519619 -0.23039744 -0.25971829) to (40.751962 40.730397 41.169913) with tilt (0 0 0)

# Run MD

run 1600000
Step          Temp          PotEng         Press         f_avp[1]       f_avp[2]       f_avp[3]       f_avp[4]       f_avp[5]       f_avp[6]
0   302.3876      -14781.024     -20905.516      0              0              0              0              0              0
Averages over the last 6 of 11 rows, steps 800000 to 1600000:
Temp PotEng Press f_avp[1] f_avp[2] f_avp[3] f_avp[4] f_avp[5] f_avp[6]
300.476 -14774.8 -20331.3 -19340.3 -18998 -22712.4 2.50732 -1.17463 -1.18518
Loop time of 3054.4 on 40 procs for 1600000 steps with 4000 atoms

include potential.mod
# NOTE: This script can be modified for different pair styles
# See in.elastic for more info.

# we must undefine any fix ave/* fix before using reset_timestep
if "$(is_defined(fix,avp))" then "unfix avp"
unfix avp
reset_timestep 0

# Choose potential

pair_style hybrid/overlay tabgap eam/fs
pair_coeff * * tabgap Al.tabgap Al no yes
Reading tabgap potential file Al.tabgap with DATE: 2024-02-04
pair_coeff * * eam/fs Al.eam.fs Al
Reading eam/fs potential file Al.eam.fs with DATE: 2024-02-04

# Setup neighbor style
neighbor 1.0 nsq
neigh_modify once no every 1 delay 0 check yes

# Setup output

fix avp all ave/time  400 400 160000 c_thermo_press mode vector
thermo		160000
thermo_style custom step temp pe press f_avp[1] f_avp[2] f_avp[3] f_avp[4] f_avp[5] f_avp[6]
thermo_modify norm no

# Setup MD

timestep 0.001
fix 4 all nve
fix 5 all langevin 300 300 0.01 123457

run 480000
Step          Temp          PotEng         Press         f_avp[1]       f_avp[2]       f_avp[3]       f_avp[4]       f_avp[5]       f_avp[6]
0   297.28783     -14774.663     -20376.257      0              0              0              0              0              0
Loop time of 912.501 on 40 procs for 480000 steps with 4000 atoms

# Obtain new stress tensor

variable pxx1 equal f_avp[1]
variable pyy1 equal f_avp[2]
variable pzz1 equal f_avp[3]
variable pxy1 equal f_avp[4]
variable pxz1 equal f_avp[5]
variable pyz1 equal f_avp[6]

# Compute elastic constant from pressure tensor

variable C1pos equal 46.80923289592
variable C2pos equal 46.952023494337
variable C3pos equal 78.830227613883
variable C4pos equal -0.101327501485304
variable C5pos equal -0.121422095856804
variable C6pos equal 0.029779196577895

# Combine positive and negative

variable C13 equal 0.5*(50.3483311872108+46.80923289592)
variable C23 equal 0.5*(50.7717723102707+46.952023494337)
variable C33 equal 0.5*(89.4756544544098+78.830227613883)
variable C43 equal 0.5*(0.0333922115429902+-0.101327501485304)
variable C53 equal 0.5*(0.146337197959172+-0.121422095856804)
variable C63 equal 0.5*(0.183136989753618+0.029779196577895)

# Delete dir to make sure it is not reused

variable dir delete

# uyz Perturbation

variable dir equal 4
include displace.mod
# NOTE: This script should not need to be
# modified. See in.elastic for more info.
#
# Find which reference length to use

variable len0 equal 41.0194365867588

# Reset box and simulation parameters

clear
box tilt large

The 'box' command has been removed and will be ignored

read_restart restart.equil
Reading restart file ...
  restart file = 22 Jul 2025, LAMMPS = 22 Jul 2025
  restoring atom style atomic from restart
  triclinic box = (-0.2519619 -0.23039744 -0.25971829) to (40.751962 40.730397 40.759718) with tilt (0 0 0)
  pair style hybrid/overlay stores no restart info
  4000 atoms
  read_restart CPU = 0.003 seconds
include potential.mod
# NOTE: This script can be modified for different pair styles
# See in.elastic for more info.

# we must undefine any fix ave/* fix before using reset_timestep
if "$(is_defined(fix,avp))" then "unfix avp"
reset_timestep 0

# Choose potential

pair_style hybrid/overlay tabgap eam/fs
pair_coeff * * tabgap Al.tabgap Al no yes
Reading tabgap potential file Al.tabgap with DATE: 2024-02-04
pair_coeff * * eam/fs Al.eam.fs Al
Reading eam/fs potential file Al.eam.fs with DATE: 2024-02-04

# Setup neighbor style
neighbor 1.0 nsq
neigh_modify once no every 1 delay 0 check yes

# Setup output

fix avp all ave/time  400 400 160000 c_thermo_press mode vector
thermo		160000
thermo_style custom step temp pe press f_avp[1] f_avp[2] f_avp[3] f_avp[4] f_avp[5] f_avp[6]
thermo_modify norm no

# Setup MD

timestep 0.001
fix 4 all nve
fix 5 all langevin 300 300 0.01 123457

# Negative deformation

variable delta equal -0.01*41.0194365867588
variable deltaxy equal -0.01*xy
variable deltaxz equal -0.01*xz
variable deltayz equal -0.01*yz
change_box all yz delta -0.410194365867588 remap units box
Changing box ...
  triclinic box = (-0.2519619 -0.23039744 -0.25971829) to (40.751962 40.730397 40.759718) with tilt (0 0 -0.41019437)

# Run MD

run 1600000
Step          Temp          PotEng         Press         f_avp[1]       f_avp[2]       f_avp[3]       f_avp[4]       f_avp[5]       f_avp[6]
0   302.3876      -14789.659     -14517.121      0              0              0              0              0              0
Averages over the last 6 of 11 rows, steps 800000 to 1600000:
Temp PotEng Press f_avp[1] f_avp[2] f_avp[3] f_avp[4] f_avp[5] f_avp[6]
298.347 -14789.3 -14512.4 -14693.2 -14219.1 -14699.6 -4.50634 -4.43895 2638.56
Loop time of 3054.59 on 40 procs for 1600000 steps with 4000 atoms

include potential.mod
# NOTE: This script can be modified for different pair styles
# See in.elastic for more info.

# we must undefine any fix ave/* fix before using reset_timestep
if "$(is_defined(fix,avp))" then "unfix avp"
unfix avp
reset_timestep 0

# Choose potential

pair_style hybrid/overlay tabgap eam/fs
pair_coeff * * tabgap Al.tabgap Al no yes
Reading tabgap potential file Al.tabgap with DATE: 2024-02-04
pair_coeff * * eam/fs Al.eam.fs Al
Reading eam/fs potential file Al.eam.fs with DATE: 2024-02-04

# Setup neighbor style
neighbor 1.0 nsq
neigh_modify once no every 1 delay 0 check yes

# Setup output

fix avp all ave/time  400 400 160000 c_thermo_press mode vector
thermo		160000
thermo_style custom step temp pe press f_avp[1] f_avp[2] f_avp[3] f_avp[4] f_avp[5] f_avp[6]
thermo_modify norm no

# Setup MD

timestep 0.001
fix 4 all nve
fix 5 all langevin 300 300 0.01 123457

run 480000
Step          Temp          PotEng         Press         f_avp[1]       f_avp[2]       f_avp[3]       f_avp[4]       f_avp[5]       f_avp[6]
0   298.47722     -14785.279     -14133.129      0              0              0              0              0              0
Loop time of 912.667 on 40 procs for 480000 steps with 4000 atoms

# Obtain new stress tensor

variable pxx1 equal f_avp[1]
variable pyy1 equal f_avp[2]
variable pzz1 equal f_avp[3]
variable pxy1 equal f_avp[4]
variable pxz1 equal f_avp[5]
variable pyz1 equal f_avp[6]

# Compute elastic constant from pressure tensor

variable C1neg equal -0.241330065992006
variable C2neg equal 0.698304308170991
variable C3neg equal 1.22118301254301
variable C4neg equal 26.5312294694948
variable C5neg equal 0.17337581906195
variable C6neg equal 0.0477836529900051

# Reset box and simulation parameters

clear
box tilt large

The 'box' command has been removed and will be ignored

read_restart restart.equil
Reading restart file ...
  restart file = 22 Jul 2025, LAMMPS = 22 Jul 2025
  restoring atom style atomic from restart
  triclinic box = (-0.2519619 -0.23039744 -0.25971829) to (40.751962 40.730397 40.759718) with tilt (0 0 0)
  pair style hybrid/overlay stores no restart info
  4000 atoms
  read_restart CPU = 0.007 seconds
include potential.mod
# NOTE: This script can be modified for different pair styles
# See in.elastic for more info.

# we must undefine any fix ave/* fix before using reset_timestep
if "$(is_defined(fix,avp))" then "unfix avp"
reset_timestep 0

# Choose potential

pair_style hybrid/overlay tabgap eam/fs
pair_coeff * * tabgap Al.tabgap Al no yes
Reading tabgap potential file Al.tabgap with DATE: 2024-02-04
pair_coeff * * eam/fs Al.eam.fs Al
Reading eam/fs potential file Al.eam.fs with DATE: 2024-02-04

# Setup neighbor style
neighbor 1.0 nsq
neigh_modify once no every 1 delay 0 check yes

# Setup output

fix avp all ave/time  400 400 160000 c_thermo_press mode vector
thermo		160000
thermo_style custom step temp pe press f_avp[1] f_avp[2] f_avp[3] f_avp[4] f_avp[5] f_avp[6]
thermo_modify norm no

# Setup MD

timestep 0.001
fix 4 all nve
fix 5 all langevin 300 300 0.01 123457

# Positive deformation

variable delta equal 0.01*41.0194365867588
variable deltaxy equal 0.01*xy
variable deltaxz equal 0.01*xz
variable deltayz equal 0.01*yz
change_box all yz delta 0.410194365867588 remap units box
Changing box ...
  triclinic box = (-0.2519619 -0.23039744 -0.25971829) to (40.751962 40.730397 40.759718) with tilt (0 0 0.41019437)

# Run MD

run 1600000
Step          Temp          PotEng         Press         f_avp[1]       f_avp[2]       f_avp[3]       f_avp[4]       f_avp[5]       f_avp[6]
0   302.3876      -14789.639     -14511.05       0              0              0              0              0              0
Averages over the last 6 of 11 rows, steps 800000 to 1600000:
Temp PotEng Press f_avp[1] f_avp[2] f_avp[3] f_avp[4] f_avp[5] f_avp[6]
299.58 -14790.4 -14589.1 -14702.4 -14223.6 -14699.7 -9.61169 4.77158 -2632.95
Loop time of 3054.31 on 40 procs for 1600000 steps with 4000 atoms

include potential.mod
# NOTE: This script can be modified for different pair styles
# See in.elastic for more info.

# we must undefine any fix ave/* fix before using reset_timestep
if "$(is_defined(fix,avp))" then "unfix avp"
unfix avp
reset_timestep 0

# Choose potential

pair_style hybrid/overlay tabgap eam/fs
pair_coeff * * tabgap Al.tabgap Al no yes
Reading tabgap potential file Al.tabgap with DATE: 2024-02-04
pair_coeff * * eam/fs Al.eam.fs Al
Reading eam/fs potential file Al.eam.fs with DATE: 2024-02-04

# Setup neighbor style
neighbor 1.0 nsq
neigh_modify once no every 1 delay 0 check yes

# Setup output

fix avp all ave/time  400 400 160000 c_thermo_press mode vector
thermo		160000
thermo_style custom step temp pe press f_avp[1] f_avp[2] f_avp[3] f_avp[4] f_avp[5] f_avp[6]
thermo_modify norm no

# Setup MD

timestep 0.001
fix 4 all nve
fix 5 all langevin 300 300 0.01 123457

run 480000
Step          Temp          PotEng         Press         f_avp[1]       f_avp[2]       f_avp[3]       f_avp[4]       f_avp[5]       f_avp[6]
0   306.07467     -14791.887     -14654.731      0              0              0              0              0              0
Loop time of 912.442 on 40 procs for 480000 steps with 4000 atoms

# Obtain new stress tensor

variable pxx1 equal f_avp[1]
variable pyy1 equal f_avp[2]
variable pzz1 equal f_avp[3]
variable pxy1 equal f_avp[4]
variable pxz1 equal f_avp[5]
variable pyz1 equal f_avp[6]

# Compute elastic constant from pressure tensor

variable C1pos equal 0.150295393924007
variable C2pos equal -0.847725611873993
variable C3pos equal -1.097673143189
variable C4pos equal 26.3023907753987
variable C5pos equal -0.0718779768921988
variable C6pos equal -0.0373372710426244

# Combine positive and negative

variable C14 equal 0.5*(-0.241330065992006+0.150295393924007)
variable C24 equal 0.5*(0.698304308170991+-0.847725611873993)
variable C34 equal 0.5*(1.22118301254301+-1.097673143189)
variable C44 equal 0.5*(26.5312294694948+26.3023907753987)
variable C54 equal 0.5*(0.17337581906195+-0.0718779768921988)
variable C64 equal 0.5*(0.0477836529900051+-0.0373372710426244)

# Delete dir to make sure it is not reused

variable dir delete

# uxz Perturbation

variable dir equal 5
include displace.mod
# NOTE: This script should not need to be
# modified. See in.elastic for more info.
#
# Find which reference length to use

variable len0 equal 41.0194365867588

# Reset box and simulation parameters

clear
box tilt large

The 'box' command has been removed and will be ignored

read_restart restart.equil
Reading restart file ...
  restart file = 22 Jul 2025, LAMMPS = 22 Jul 2025
  restoring atom style atomic from restart
  triclinic box = (-0.2519619 -0.23039744 -0.25971829) to (40.751962 40.730397 40.759718) with tilt (0 0 0)
  pair style hybrid/overlay stores no restart info
  4000 atoms
  read_restart CPU = 0.003 seconds
include potential.mod
# NOTE: This script can be modified for different pair styles
# See in.elastic for more info.

# we must undefine any fix ave/* fix before using reset_timestep
if "$(is_defined(fix,avp))" then "unfix avp"
reset_timestep 0

# Choose potential

pair_style hybrid/overlay tabgap eam/fs
pair_coeff * * tabgap Al.tabgap Al no yes
Reading tabgap potential file Al.tabgap with DATE: 2024-02-04
pair_coeff * * eam/fs Al.eam.fs Al
Reading eam/fs potential file Al.eam.fs with DATE: 2024-02-04

# Setup neighbor style
neighbor 1.0 nsq
neigh_modify once no every 1 delay 0 check yes

# Setup output

fix avp all ave/time  400 400 160000 c_thermo_press mode vector
thermo		160000
thermo_style custom step temp pe press f_avp[1] f_avp[2] f_avp[3] f_avp[4] f_avp[5] f_avp[6]
thermo_modify norm no

# Setup MD

timestep 0.001
fix 4 all nve
fix 5 all langevin 300 300 0.01 123457

# Negative deformation

variable delta equal -0.01*41.0194365867588
variable deltaxy equal -0.01*xy
variable deltaxz equal -0.01*xz
variable deltayz equal -0.01*yz
change_box all xz delta -0.410194365867588 remap units box
Changing box ...
  triclinic box = (-0.2519619 -0.23039744 -0.25971829) to (40.751962 40.730397 40.759718) with tilt (0 -0.41019437 0)

# Run MD

run 1600000
Step          Temp          PotEng         Press         f_avp[1]       f_avp[2]       f_avp[3]       f_avp[4]       f_avp[5]       f_avp[6]
0   302.3876      -14789.661     -14513.872      0              0              0              0              0              0
Averages over the last 6 of 11 rows, steps 800000 to 1600000:
Temp PotEng Press f_avp[1] f_avp[2] f_avp[3] f_avp[4] f_avp[5] f_avp[6]
302.285 -14789 -14468.5 -14592.3 -14312.9 -14694.9 -2.57261 2605.71 0.145386
Loop time of 3063.27 on 40 procs for 1600000 steps with 4000 atoms

include potential.mod
# NOTE: This script can be modified for different pair styles
# See in.elastic for more info.

# we must undefine any fix ave/* fix before using reset_timestep
if "$(is_defined(fix,avp))" then "unfix avp"
unfix avp
reset_timestep 0

# Choose potential

pair_style hybrid/overlay tabgap eam/fs
pair_coeff * * tabgap Al.tabgap Al no yes
Reading tabgap potential file Al.tabgap with DATE: 2024-02-04
pair_coeff * * eam/fs Al.eam.fs Al
Reading eam/fs potential file Al.eam.fs with DATE: 2024-02-04

# Setup neighbor style
neighbor 1.0 nsq
neigh_modify once no every 1 delay 0 check yes

# Setup output

fix avp all ave/time  400 400 160000 c_thermo_press mode vector
thermo		160000
thermo_style custom step temp pe press f_avp[1] f_avp[2] f_avp[3] f_avp[4] f_avp[5] f_avp[6]
thermo_modify norm no

# Setup MD

timestep 0.001
fix 4 all nve
fix 5 all langevin 300 300 0.01 123457

run 480000
Step          Temp          PotEng         Press         f_avp[1]       f_avp[2]       f_avp[3]       f_avp[4]       f_avp[5]       f_avp[6]
0   297.86251     -14787.75      -14420.364      0              0              0              0              0              0
Loop time of 913.054 on 40 procs for 480000 steps with 4000 atoms

# Obtain new stress tensor

variable pxx1 equal f_avp[1]
variable pyy1 equal f_avp[2]
variable pzz1 equal f_avp[3]
variable pxy1 equal f_avp[4]
variable pxz1 equal f_avp[5]
variable pyz1 equal f_avp[6]

# Compute elastic constant from pressure tensor

variable C1neg equal 0.489791656179004
variable C2neg equal -0.21773427909
variable C3neg equal 0.982575753873007
variable C4neg equal 0.139500443237244
variable C5neg equal 26.2499806278055
variable C6neg equal 0.0315243339177174

# Reset box and simulation parameters

clear
box tilt large

The 'box' command has been removed and will be ignored

read_restart restart.equil
Reading restart file ...
  restart file = 22 Jul 2025, LAMMPS = 22 Jul 2025
  restoring atom style atomic from restart
  triclinic box = (-0.2519619 -0.23039744 -0.25971829) to (40.751962 40.730397 40.759718) with tilt (0 0 0)
  pair style hybrid/overlay stores no restart info
  4000 atoms
  read_restart CPU = 0.007 seconds
include potential.mod
# NOTE: This script can be modified for different pair styles
# See in.elastic for more info.

# we must undefine any fix ave/* fix before using reset_timestep
if "$(is_defined(fix,avp))" then "unfix avp"
reset_timestep 0

# Choose potential

pair_style hybrid/overlay tabgap eam/fs
pair_coeff * * tabgap Al.tabgap Al no yes
Reading tabgap potential file Al.tabgap with DATE: 2024-02-04
pair_coeff * * eam/fs Al.eam.fs Al
Reading eam/fs potential file Al.eam.fs with DATE: 2024-02-04

# Setup neighbor style
neighbor 1.0 nsq
neigh_modify once no every 1 delay 0 check yes

# Setup output

fix avp all ave/time  400 400 160000 c_thermo_press mode vector
thermo		160000
thermo_style custom step temp pe press f_avp[1] f_avp[2] f_avp[3] f_avp[4] f_avp[5] f_avp[6]
thermo_modify norm no

# Setup MD

timestep 0.001
fix 4 all nve
fix 5 all langevin 300 300 0.01 123457

# Positive deformation

variable delta equal 0.01*41.0194365867588
variable deltaxy equal 0.01*xy
variable deltaxz equal 0.01*xz
variable deltayz equal 0.01*yz
change_box all xz delta 0.410194365867588 remap units box
Changing box ...
  triclinic box = (-0.2519619 -0.23039744 -0.25971829) to (40.751962 40.730397 40.759718) with tilt (0 0.41019437 0)

# Run MD

run 1600000
Step          Temp          PotEng         Press         f_avp[1]       f_avp[2]       f_avp[3]       f_avp[4]       f_avp[5]       f_avp[6]
0   302.3876      -14789.647     -14513.211      0              0              0              0              0              0
Averages over the last 6 of 11 rows, steps 800000 to 1600000:
Temp PotEng Press f_avp[1] f_avp[2] f_avp[3] f_avp[4] f_avp[5] f_avp[6]
302.16 -14789.9 -14545.8 -14598.2 -14314.2 -14692.5 0.759617 -2613.25 3.00974
Loop time of 3052.17 on 40 procs for 1600000 steps with 4000 atoms

include potential.mod
# NOTE: This script can be modified for different pair styles
# See in.elastic for more info.

# we must undefine any fix ave/* fix before using reset_timestep
if "$(is_defined(fix,avp))" then "unfix avp"
unfix avp
reset_timestep 0

# Choose potential

pair_style hybrid/overlay tabgap eam/fs
pair_coeff * * tabgap Al.tabgap Al no yes
Reading tabgap potential file Al.tabgap with DATE: 2024-02-04
pair_coeff * * eam/fs Al.eam.fs Al
Reading eam/fs potential file Al.eam.fs with DATE: 2024-02-04

# Setup neighbor style
neighbor 1.0 nsq
neigh_modify once no every 1 delay 0 check yes

# Setup output

fix avp all ave/time  400 400 160000 c_thermo_press mode vector
thermo		160000
thermo_style custom step temp pe press f_avp[1] f_avp[2] f_avp[3] f_avp[4] f_avp[5] f_avp[6]
thermo_modify norm no

# Setup MD

timestep 0.001
fix 4 all nve
fix 5 all langevin 300 300 0.01 123457

run 480000
Step          Temp          PotEng         Press         f_avp[1]       f_avp[2]       f_avp[3]       f_avp[4]       f_avp[5]       f_avp[6]
0   298.13661     -14787.27      -14371.541      0              0              0              0              0              0
Loop time of 912.429 on 40 procs for 480000 steps with 4000 atoms

# Obtain new stress tensor

variable pxx1 equal f_avp[1]
variable pyy1 equal f_avp[2]
variable pzz1 equal f_avp[3]
variable pxy1 equal f_avp[4]
variable pxz1 equal f_avp[5]
variable pyz1 equal f_avp[6]

# Compute elastic constant from pressure tensor

variable C1pos equal -0.583777646610997
variable C2pos equal 0.231556028900995
variable C3pos equal -0.980839804987008
variable C4pos equal -0.115827822583651
variable C5pos equal 26.0498831445832
variable C6pos equal -0.0816090694862524

# Combine positive and negative

variable C15 equal 0.5*(0.489791656179004+-0.583777646610997)
variable C25 equal 0.5*(-0.21773427909+0.231556028900995)
variable C35 equal 0.5*(0.982575753873007+-0.980839804987008)
variable C45 equal 0.5*(0.139500443237244+-0.115827822583651)
variable C55 equal 0.5*(26.2499806278055+26.0498831445832)
variable C65 equal 0.5*(0.0315243339177174+-0.0816090694862524)

# Delete dir to make sure it is not reused

variable dir delete

# uxy Perturbation

variable dir equal 6
include displace.mod
# NOTE: This script should not need to be
# modified. See in.elastic for more info.
#
# Find which reference length to use

variable len0 equal 40.9607948712564

# Reset box and simulation parameters

clear
box tilt large

The 'box' command has been removed and will be ignored

read_restart restart.equil
Reading restart file ...
  restart file = 22 Jul 2025, LAMMPS = 22 Jul 2025
  restoring atom style atomic from restart
  triclinic box = (-0.2519619 -0.23039744 -0.25971829) to (40.751962 40.730397 40.759718) with tilt (0 0 0)
  pair style hybrid/overlay stores no restart info
  4000 atoms
  read_restart CPU = 0.003 seconds
include potential.mod
# NOTE: This script can be modified for different pair styles
# See in.elastic for more info.

# we must undefine any fix ave/* fix before using reset_timestep
if "$(is_defined(fix,avp))" then "unfix avp"
reset_timestep 0

# Choose potential

pair_style hybrid/overlay tabgap eam/fs
pair_coeff * * tabgap Al.tabgap Al no yes
Reading tabgap potential file Al.tabgap with DATE: 2024-02-04
pair_coeff * * eam/fs Al.eam.fs Al
Reading eam/fs potential file Al.eam.fs with DATE: 2024-02-04

# Setup neighbor style
neighbor 1.0 nsq
neigh_modify once no every 1 delay 0 check yes

# Setup output

fix avp all ave/time  400 400 160000 c_thermo_press mode vector
thermo		160000
thermo_style custom step temp pe press f_avp[1] f_avp[2] f_avp[3] f_avp[4] f_avp[5] f_avp[6]
thermo_modify norm no

# Setup MD

timestep 0.001
fix 4 all nve
fix 5 all langevin 300 300 0.01 123457

# Negative deformation

variable delta equal -0.01*40.9607948712564
variable deltaxy equal -0.01*xy
variable deltaxz equal -0.01*xz
variable deltayz equal -0.01*yz
change_box all xy delta -0.409607948712564 remap units box
Changing box ...
  triclinic box = (-0.2519619 -0.23039744 -0.25971829) to (40.751962 40.730397 40.759718) with tilt (-0.40960795 0 0)

# Run MD

run 1600000
Step          Temp          PotEng         Press         f_avp[1]       f_avp[2]       f_avp[3]       f_avp[4]       f_avp[5]       f_avp[6]
0   302.3876      -14789.694     -14514.916      0              0              0              0              0              0
Averages over the last 6 of 11 rows, steps 800000 to 1600000:
Temp PotEng Press f_avp[1] f_avp[2] f_avp[3] f_avp[4] f_avp[5] f_avp[6]
298.277 -14789.7 -14580.8 -14601.2 -14186.2 -14825.1 2641.38 1.07708 0.677706
Loop time of 3065.3 on 40 procs for 1600000 steps with 4000 atoms

include potential.mod
# NOTE: This script can be modified for different pair styles
# See in.elastic for more info.

# we must undefine any fix ave/* fix before using reset_timestep
if "$(is_defined(fix,avp))" then "unfix avp"
unfix avp
reset_timestep 0

# Choose potential

pair_style hybrid/overlay tabgap eam/fs
pair_coeff * * tabgap Al.tabgap Al no yes
Reading tabgap potential file Al.tabgap with DATE: 2024-02-04
pair_coeff * * eam/fs Al.eam.fs Al
Reading eam/fs potential file Al.eam.fs with DATE: 2024-02-04

# Setup neighbor style
neighbor 1.0 nsq
neigh_modify once no every 1 delay 0 check yes

# Setup output

fix avp all ave/time  400 400 160000 c_thermo_press mode vector
thermo		160000
thermo_style custom step temp pe press f_avp[1] f_avp[2] f_avp[3] f_avp[4] f_avp[5] f_avp[6]
thermo_modify norm no

# Setup MD

timestep 0.001
fix 4 all nve
fix 5 all langevin 300 300 0.01 123457

run 480000
Step          Temp          PotEng         Press         f_avp[1]       f_avp[2]       f_avp[3]       f_avp[4]       f_avp[5]       f_avp[6]
0   294.34178     -14790.366     -14660.316      0              0              0              0              0              0
Loop time of 912.354 on 40 procs for 480000 steps with 4000 atoms

# Obtain new stress tensor

variable pxx1 equal f_avp[1]
variable pyy1 equal f_avp[2]
variable pzz1 equal f_avp[3]
variable pxy1 equal f_avp[4]
variable pxz1 equal f_avp[5]
variable pyz1 equal f_avp[6]

# Compute elastic constant from pressure tensor

variable C1neg equal 0.694162324720001
variable C2neg equal 1.05176443275499
variable C3neg equal -0.307758089395993
variable C4neg equal 0.0453077985974068
variable C5neg equal 0.138200131503896
variable C6neg equal 26.4016230758029

# Reset box and simulation parameters

clear
box tilt large

The 'box' command has been removed and will be ignored

read_restart restart.equil
Reading restart file ...
  restart file = 22 Jul 2025, LAMMPS = 22 Jul 2025
  restoring atom style atomic from restart
  triclinic box = (-0.2519619 -0.23039744 -0.25971829) to (40.751962 40.730397 40.759718) with tilt (0 0 0)
  pair style hybrid/overlay stores no restart info
  4000 atoms
  read_restart CPU = 0.006 seconds
include potential.mod
# NOTE: This script can be modified for different pair styles
# See in.elastic for more info.

# we must undefine any fix ave/* fix before using reset_timestep
if "$(is_defined(fix,avp))" then "unfix avp"
reset_timestep 0

# Choose potential

pair_style hybrid/overlay tabgap eam/fs
pair_coeff * * tabgap Al.tabgap Al no yes
Reading tabgap potential file Al.tabgap with DATE: 2024-02-04
pair_coeff * * eam/fs Al.eam.fs Al
Reading eam/fs potential file Al.eam.fs with DATE: 2024-02-04

# Setup neighbor style
neighbor 1.0 nsq
neigh_modify once no every 1 delay 0 check yes

# Setup output

fix avp all ave/time  400 400 160000 c_thermo_press mode vector
thermo		160000
thermo_style custom step temp pe press f_avp[1] f_avp[2] f_avp[3] f_avp[4] f_avp[5] f_avp[6]
thermo_modify norm no

# Setup MD

timestep 0.001
fix 4 all nve
fix 5 all langevin 300 300 0.01 123457

# Positive deformation

variable delta equal 0.01*40.9607948712564
variable deltaxy equal 0.01*xy
variable deltaxz equal 0.01*xz
variable deltayz equal 0.01*yz
change_box all xy delta 0.409607948712564 remap units box
Changing box ...
  triclinic box = (-0.2519619 -0.23039744 -0.25971829) to (40.751962 40.730397 40.759718) with tilt (0.40960795 0 0)

# Run MD

run 1600000
Step          Temp          PotEng         Press         f_avp[1]       f_avp[2]       f_avp[3]       f_avp[4]       f_avp[5]       f_avp[6]
0   302.3876      -14789.605     -14512.12       0              0              0              0              0              0
Averages over the last 6 of 11 rows, steps 800000 to 1600000:
Temp PotEng Press f_avp[1] f_avp[2] f_avp[3] f_avp[4] f_avp[5] f_avp[6]
297.791 -14790.5 -14647.4 -14605.7 -14189.2 -14835.9 -2637.43 1.61036 0.52492
Loop time of 3069.76 on 40 procs for 1600000 steps with 4000 atoms

include potential.mod
# NOTE: This script can be modified for different pair styles
# See in.elastic for more info.

# we must undefine any fix ave/* fix before using reset_timestep
if "$(is_defined(fix,avp))" then "unfix avp"
unfix avp
reset_timestep 0

# Choose potential

pair_style hybrid/overlay tabgap eam/fs
pair_coeff * * tabgap Al.tabgap Al no yes
Reading tabgap potential file Al.tabgap with DATE: 2024-02-04
pair_coeff * * eam/fs Al.eam.fs Al
Reading eam/fs potential file Al.eam.fs with DATE: 2024-02-04

# Setup neighbor style
neighbor 1.0 nsq
neigh_modify once no every 1 delay 0 check yes

# Setup output

fix avp all ave/time  400 400 160000 c_thermo_press mode vector
thermo		160000
thermo_style custom step temp pe press f_avp[1] f_avp[2] f_avp[3] f_avp[4] f_avp[5] f_avp[6]
thermo_modify norm no

# Setup MD

timestep 0.001
fix 4 all nve
fix 5 all langevin 300 300 0.01 123457

run 480000
Step          Temp          PotEng         Press         f_avp[1]       f_avp[2]       f_avp[3]       f_avp[4]       f_avp[5]       f_avp[6]
0   297.59967     -14791.446     -14717.923      0              0              0              0              0              0
Loop time of 912.179 on 40 procs for 480000 steps with 4000 atoms

# Obtain new stress tensor

variable pxx1 equal f_avp[1]
variable pyy1 equal f_avp[2]
variable pzz1 equal f_avp[3]
variable pxy1 equal f_avp[4]
variable pxz1 equal f_avp[5]
variable pyz1 equal f_avp[6]

# Compute elastic constant from pressure tensor

variable C1pos equal -0.594115098170005
variable C2pos equal -1.07765447927
variable C3pos equal 0.272888604910004
variable C4pos equal -0.014908725797391
variable C5pos equal -0.192953722021025
variable C6pos equal 26.361243087238

# Combine positive and negative

variable C16 equal 0.5*(0.694162324720001+-0.594115098170005)
variable C26 equal 0.5*(1.05176443275499+-1.07765447927)
variable C36 equal 0.5*(-0.307758089395993+0.272888604910004)
variable C46 equal 0.5*(0.0453077985974068+-0.014908725797391)
variable C56 equal 0.5*(0.138200131503896+-0.192953722021025)
variable C66 equal 0.5*(26.4016230758029+26.361243087238)

# Delete dir to make sure it is not reused

variable dir delete

# Output final values

variable C11all equal 84.501266513037
variable C22all equal 85.2138750535207
variable C33all equal 84.1529410341464

variable C12all equal 0.5*(49.0073070780106+48.8154012243359)
variable C13all equal 0.5*(48.5787820415654+48.4220968342467)
variable C23all equal 0.5*(48.8618979023039+48.7987099086384)

variable C44all equal 26.4168101224467
variable C55all equal 26.1499318861944
variable C66all equal 26.3814330815204

variable C14all equal 0.5*(-0.0455173360339995+0.0674842660394924)
variable C15all equal 0.5*(-0.0469929952159965+-0.0125848546526457)
variable C16all equal 0.5*(0.050023613274998+0.0953507108677246)

variable C24all equal 0.5*(-0.074710651851501+0.0121489557867406)
variable C25all equal 0.5*(0.00691087490549749+0.0233332196608515)
variable C26all equal 0.5*(-0.012945023257505+0.0138266902738915)

variable C34all equal 0.5*(0.0617549346770051+-0.0339676449711569)
variable C35all equal 0.5*(0.00086797444299952+0.012457551051184)
variable C36all equal 0.5*(-0.0174347422429945+0.106458093165756)

variable C45all equal 0.5*(0.0118363103267965+0.0507489210848756)
variable C46all equal 0.5*(0.0151995364000079+0.00522319097369035)
variable C56all equal 0.5*(-0.0273767952585645+-0.0250423677842675)

# Average moduli for cubic crystals

variable C11cubic equal (84.501266513037+85.2138750535207+84.1529410341464)/3.0
variable C12cubic equal (48.9113541511732+48.5004394379061+48.8303039054712)/3.0
variable C44cubic equal (26.4168101224467+26.1499318861944+26.3814330815204)/3.0

variable bulkmodulus equal (84.6226942002347+2*48.7473658315168)/3.0
variable shearmodulus1 equal 26.3160583633872
variable shearmodulus2 equal (84.6226942002347-48.7473658315168)/2.0
variable poissonratio equal 1.0/(1.0+84.6226942002347/48.7473658315168)

# For Stillinger-Weber silicon, the analytical results
# are known to be (E. R. Cowley, 1988):
#               C11 = 151.4 GPa
#               C12 = 76.4 GPa
#               C44 = 56.4 GPa

print "========================================="
=========================================
print "Components of the Elastic Constant Tensor"
Components of the Elastic Constant Tensor
print "========================================="
=========================================

Elastic Constant C11all = 84.501266513037 GPa
Elastic Constant C22all = 85.2138750535207 GPa
Elastic Constant C33all = 84.1529410341464 GPa

Elastic Constant C12all = 48.9113541511732 GPa
Elastic Constant C13all = 48.5004394379061 GPa
Elastic Constant C23all = 48.8303039054712 GPa

Elastic Constant C44all = 26.4168101224467 GPa
Elastic Constant C55all = 26.1499318861944 GPa
Elastic Constant C66all = 26.3814330815204 GPa

Elastic Constant C14all = 0.0109834650027464 GPa
Elastic Constant C15all = -0.0297889249343211 GPa
Elastic Constant C16all = 0.0726871620713613 GPa

Elastic Constant C24all = -0.0312808480323802 GPa
Elastic Constant C25all = 0.0151220472831745 GPa
Elastic Constant C26all = 0.00044083350819325 GPa

Elastic Constant C34all = 0.0138936448529241 GPa
Elastic Constant C35all = 0.00666276274709176 GPa
Elastic Constant C36all = 0.0445116754613807 GPa

Elastic Constant C45all = 0.0312926157058361 GPa
Elastic Constant C46all = 0.0102113636868491 GPa
Elastic Constant C56all = -0.026209581521416 GPa

print "========================================="
=========================================
print "Average properties for a cubic crystal"
Average properties for a cubic crystal
print "========================================="
=========================================

Bulk Modulus = 60.7058086210894 GPa
Shear Modulus 1 = 26.3160583633872 GPa
Shear Modulus 2 = 17.937664184359 GPa
Poisson Ratio = 0.365504565416792
