LAMMPS (22 Jul 2025)
# Compute elastic constant tensor for a crystal at finite temperature
#
# WARNING: This script attempts to measure small differences in
# statistical averages generated by finite temperature MD simulations.
# This creates many more opportunities for errors to occur, compared
# to the zero temperature version provided in examples/ELASTIC.
# Hence, it is always a good idea to start with the zero temperature
# calculation, before attempting to use this script.
#
# Written by Aidan Thompson (Sandia, athomps@sandia.gov)
#
#  This script uses the following three include files.
#
#   init.mod      (must be modified for different crystal structures)
# 	       	  Define units, MD parameters, deformation parameters,
#		  and initial configuration of the atoms and simulation cell.
#
#
#   potential.mod    (must be modified for different pair styles)
# 		     Define pair style and other attributes
#		     not stored in restart file
#
#
#   displace.mod    (displace.mod should not need to be modified)
# 		    Perform positive and negative box displacements
# 		    It uses the resultant changes
#		    in stress to compute one
# 		    row of the elastic stiffness tensor
#
#		    Inputs variables:
#		    	   dir = the Voigt deformation component
#		    		    (1,2,3,4,5,6)
#		    Global constants:
#       	    	   up = the deformation magnitude (strain units)
#       		   cfac = conversion from LAMMPS pressure units to
#               	   output units for elastic constants
#
#
#  To run this on a different system, it should only be necessary to
#  modify the files init.mod and potential.mod. In order to calculate
#  the elastic constants correctly, care must be taken to specify
#  the correct units in init.mod (units, cfac and cunits). It is also
#  important to verify that the MD sampling of stress components
#  is generating accurate statistical averages.
#  One indication of this is that the elastic constants are insensitive
#  check for finite size effects.
#

include init.mod
# NOTE: This script can be modified for different atomic structures,
# units, etc. See in.elastic for more info.
#

# Define the finite deformation size. Try several values of this
# variable to verify that results do not depend on it.
variable up equal 1.0e-2

# metal units, elastic constants in GPa
units		metal
variable cfac equal 1.0e-4
variable cunits string GPa

# Define MD parameters
variable nevery equal 400                  # sampling interval
variable nrepeat equal 400                 # number of samples
variable nfreq equal 400*400
variable nthermo equal 160000
variable nequil equal 10*160000
variable nrun equal 3*160000
variable temp equal 300.0                # temperature of initial sample
variable timestep equal 0.001             # timestep
variable mass1 equal 26.981539            # mass
variable adiabatic equal 0                # adiabatic (1) or isothermal (2)
variable tdamp equal 0.01                 # time constant for thermostat
variable seed equal 123457                # seed for thermostat
variable pdamp equal 0.1
# generate the box and atom positions using a fcc lattice
variable a equal 4.05

boundary        p p p

lattice        fcc $a
lattice        fcc 4.05
Lattice spacing in x,y,z = 4.05 4.05 4.05
region         box prism 0 10.0 0 10.0 0 10.0 0.0 0.0 0.0
create_box     1 box
Created triclinic box = (0 0 0) to (40.5 40.5 40.5) with tilt (0 0 0)
create_atoms   1 box
Created 4000 atoms

mass 1 26.981539
velocity        all create 300 87287

# Compute initial state

variable thermostat equal 1
include potential.mod
# NOTE: This script can be modified for different pair styles
# See in.elastic for more info.

# we must undefine any fix ave/* fix before using reset_timestep
if "$(is_defined(fix,avp))" then "unfix avp"
reset_timestep 0

# Choose potential

pair_style  meam
pair_coeff * * library-Al.meam Al Al.meam Al

# Setup neighbor style
neighbor 1.0 nsq
neigh_modify once no every 1 delay 0 check yes

# Setup output

fix avp all ave/time  400 400 160000 c_thermo_press mode vector
thermo		160000
thermo_style custom step temp pe press f_avp[1] f_avp[2] f_avp[3] f_avp[4] f_avp[5] f_avp[6]
thermo_modify norm no

# Setup MD

timestep 0.001
fix 4 all nve
fix 5 all langevin 300 300 0.01 123457

run 1600000
Step          Temp          PotEng         Press         f_avp[1]       f_avp[2]       f_avp[3]       f_avp[4]       f_avp[5]       f_avp[6]
0   299.99957     -13439.96       2492.7424      0              0              0              0              0              0
Averages over the last 6 of 11 rows, steps 800000 to 1600000:
Temp PotEng Press f_avp[1] f_avp[2] f_avp[3] f_avp[4] f_avp[5] f_avp[6]
299.866 -13280.8 15565.5 15515.5 15502.4 15506.5 -2.90271 -3.64381 1.37344
Loop time of 2957.05 on 30 procs for 1600000 steps with 4000 atoms

fix 2  all npt temp 300 300 0.01 drag 1.0 pchain 8 aniso 0.0 0.0 0.1
run 1600000
For more information see https://docs.lammps.org/err0032 (src/modify.cpp:298)
Step          Temp          PotEng         Press         f_avp[1]       f_avp[2]       f_avp[3]       f_avp[4]       f_avp[5]       f_avp[6]
1600000   298.52069     -13277.861      15792.212      15522.639      15508.622      15514.272     -7.4944263     -2.056546      -1.2828976
Averages over the last 6 of 11 rows, steps 2400000 to 3200000:
Temp PotEng Press f_avp[1] f_avp[2] f_avp[3] f_avp[4] f_avp[5] f_avp[6]
575.455 -13094.3 41.8669 -89.5253 -73.3524 -95.9428 -6.38854 4.00045 -9.53164
Loop time of 2983.07 on 30 procs for 1600000 steps with 4000 atoms

unfix 2

variable thermostat equal 1

print 1
1

include potential.mod
# NOTE: This script can be modified for different pair styles
# See in.elastic for more info.

# we must undefine any fix ave/* fix before using reset_timestep
if "$(is_defined(fix,avp))" then "unfix avp"
unfix avp
reset_timestep 0

# Choose potential

pair_style  meam
pair_coeff * * library-Al.meam Al Al.meam Al

# Setup neighbor style
neighbor 1.0 nsq
neigh_modify once no every 1 delay 0 check yes

# Setup output

fix avp all ave/time  400 400 160000 c_thermo_press mode vector
thermo		160000
thermo_style custom step temp pe press f_avp[1] f_avp[2] f_avp[3] f_avp[4] f_avp[5] f_avp[6]
thermo_modify norm no

# Setup MD

timestep 0.001
fix 4 all nve
fix 5 all langevin 300 300 0.01 123457

run 480000
Step          Temp          PotEng         Press         f_avp[1]       f_avp[2]       f_avp[3]       f_avp[4]       f_avp[5]       f_avp[6]
0   573.55441     -13099.655      207.72442      0              0              0              0              0              0
Loop time of 817.858 on 30 procs for 480000 steps with 4000 atoms

variable pxx0 equal f_avp[1]
variable pyy0 equal f_avp[2]
variable pzz0 equal f_avp[3]
variable pxy0 equal f_avp[4]
variable pxz0 equal f_avp[5]
variable pyz0 equal f_avp[6]

variable tmp equal lx
variable lx0 equal 41.2087878139
variable tmp equal ly
variable ly0 equal 41.1600464347122
variable tmp equal lz
variable lz0 equal 41.1736635304057

# These formulas define the derivatives w.r.t. strain components
# Constants uses $, variables use v_
variable d1 equal -(v_pxx1--15103.216368829)/(v_delta/v_len0)*0.0001
variable d2 equal -(v_pyy1--14659.429498887)/(v_delta/v_len0)*0.0001
variable d3 equal -(v_pzz1--14787.5451413787)/(v_delta/v_len0)*0.0001
variable d4 equal -(v_pyz1-1.38249625809142)/(v_delta/v_len0)*0.0001
variable d5 equal -(v_pxz1--5.83936022116832)/(v_delta/v_len0)*0.0001
variable d6 equal -(v_pxy1-6.86761084001833)/(v_delta/v_len0)*0.0001

# Write restart
write_restart restart.equil
System init for write_restart ...

# uxx Perturbation

variable dir equal 1
include displace.mod
# NOTE: This script should not need to be
# modified. See in.elastic for more info.
#
# Find which reference length to use

variable len0 equal 41.2087878139

# Reset box and simulation parameters

clear
box tilt large

The 'box' command has been removed and will be ignored

read_restart restart.equil
Reading restart file ...
  restart file = 22 Jul 2025, LAMMPS = 22 Jul 2025
  restoring atom style atomic from restart
  triclinic box = (-0.35439391 -0.33002322 -0.33683177) to (40.854394 40.830023 40.836832) with tilt (0 0 0)
  pair style meam stores no restart info
  4000 atoms
  read_restart CPU = 0.011 seconds
include potential.mod
# NOTE: This script can be modified for different pair styles
# See in.elastic for more info.

# we must undefine any fix ave/* fix before using reset_timestep
if "$(is_defined(fix,avp))" then "unfix avp"
reset_timestep 0

# Choose potential

pair_style  meam
pair_coeff * * library-Al.meam Al Al.meam Al

# Setup neighbor style
neighbor 1.0 nsq
neigh_modify once no every 1 delay 0 check yes

# Setup output

fix avp all ave/time  400 400 160000 c_thermo_press mode vector
thermo		160000
thermo_style custom step temp pe press f_avp[1] f_avp[2] f_avp[3] f_avp[4] f_avp[5] f_avp[6]
thermo_modify norm no

# Setup MD

timestep 0.001
fix 4 all nve
fix 5 all langevin 300 300 0.01 123457

# Negative deformation

variable delta equal -0.01*41.2087878139
variable deltaxy equal -0.01*xy
variable deltaxz equal -0.01*xz
variable deltayz equal -0.01*yz
change_box all x delta 0 -0.412087878139 xy delta 0 xz delta 0 remap units box
Changing box ...
  triclinic box = (-0.35439391 -0.33002322 -0.33683177) to (40.442306 40.830023 40.836832) with tilt (0 0 0)
  triclinic box = (-0.35439391 -0.33002322 -0.33683177) to (40.442306 40.830023 40.836832) with tilt (0 0 0)
  triclinic box = (-0.35439391 -0.33002322 -0.33683177) to (40.442306 40.830023 40.836832) with tilt (0 0 0)

# Run MD

run 1600000
Step          Temp          PotEng         Press         f_avp[1]       f_avp[2]       f_avp[3]       f_avp[4]       f_avp[5]       f_avp[6]
0   307.06101     -13252.459     -9073.5641      0              0              0              0              0              0
Averages over the last 6 of 11 rows, steps 800000 to 1600000:
Temp PotEng Press f_avp[1] f_avp[2] f_avp[3] f_avp[4] f_avp[5] f_avp[6]
297.605 -13257.5 -9609.66 -7319.77 -10666.4 -10800.9 -1.50216 2.67256 1.5183
Loop time of 2899.99 on 30 procs for 1600000 steps with 4000 atoms

include potential.mod
# NOTE: This script can be modified for different pair styles
# See in.elastic for more info.

# we must undefine any fix ave/* fix before using reset_timestep
if "$(is_defined(fix,avp))" then "unfix avp"
unfix avp
reset_timestep 0

# Choose potential

pair_style  meam
pair_coeff * * library-Al.meam Al Al.meam Al

# Setup neighbor style
neighbor 1.0 nsq
neigh_modify once no every 1 delay 0 check yes

# Setup output

fix avp all ave/time  400 400 160000 c_thermo_press mode vector
thermo		160000
thermo_style custom step temp pe press f_avp[1] f_avp[2] f_avp[3] f_avp[4] f_avp[5] f_avp[6]
thermo_modify norm no

# Setup MD

timestep 0.001
fix 4 all nve
fix 5 all langevin 300 300 0.01 123457

run 480000
Step          Temp          PotEng         Press         f_avp[1]       f_avp[2]       f_avp[3]       f_avp[4]       f_avp[5]       f_avp[6]
0   298.01506     -13258.328     -9681.1392      0              0              0              0              0              0
Loop time of 843.931 on 30 procs for 480000 steps with 4000 atoms

# Obtain new stress tensor

variable pxx1 equal f_avp[1]
variable pyy1 equal f_avp[2]
variable pzz1 equal f_avp[3]
variable pxy1 equal f_avp[4]
variable pxz1 equal f_avp[5]
variable pyz1 equal f_avp[6]

# Compute elastic constant from pressure tensor

variable C1neg equal 77.9207765189728
variable C2neg equal 40.083386886704
variable C3neg equal 39.925323555224
variable C4neg equal 0.0663905637229092
variable C5neg equal 0.0878213655486584
variable C6neg equal -0.123722885615913

# Reset box and simulation parameters

clear
box tilt large

The 'box' command has been removed and will be ignored

read_restart restart.equil
Reading restart file ...
  restart file = 22 Jul 2025, LAMMPS = 22 Jul 2025
  restoring atom style atomic from restart
  triclinic box = (-0.35439391 -0.33002322 -0.33683177) to (40.854394 40.830023 40.836832) with tilt (0 0 0)
  pair style meam stores no restart info
  4000 atoms
  read_restart CPU = 0.018 seconds
include potential.mod
# NOTE: This script can be modified for different pair styles
# See in.elastic for more info.

# we must undefine any fix ave/* fix before using reset_timestep
if "$(is_defined(fix,avp))" then "unfix avp"
reset_timestep 0

# Choose potential

pair_style  meam
pair_coeff * * library-Al.meam Al Al.meam Al

# Setup neighbor style
neighbor 1.0 nsq
neigh_modify once no every 1 delay 0 check yes

# Setup output

fix avp all ave/time  400 400 160000 c_thermo_press mode vector
thermo		160000
thermo_style custom step temp pe press f_avp[1] f_avp[2] f_avp[3] f_avp[4] f_avp[5] f_avp[6]
thermo_modify norm no

# Setup MD

timestep 0.001
fix 4 all nve
fix 5 all langevin 300 300 0.01 123457

# Positive deformation

variable delta equal 0.01*41.2087878139
variable deltaxy equal 0.01*xy
variable deltaxz equal 0.01*xz
variable deltayz equal 0.01*yz
change_box all x delta 0 0.412087878139 xy delta 0 xz delta 0 remap units box
Changing box ...
  triclinic box = (-0.35439391 -0.33002322 -0.33683177) to (41.266482 40.830023 40.836832) with tilt (0 0 0)
  triclinic box = (-0.35439391 -0.33002322 -0.33683177) to (41.266482 40.830023 40.836832) with tilt (0 0 0)
  triclinic box = (-0.35439391 -0.33002322 -0.33683177) to (41.266482 40.830023 40.836832) with tilt (0 0 0)

# Run MD

run 1600000
Step          Temp          PotEng         Press         f_avp[1]       f_avp[2]       f_avp[3]       f_avp[4]       f_avp[5]       f_avp[6]
0   307.06101     -13237.102     -20163.929      0              0              0              0              0              0
Averages over the last 6 of 11 rows, steps 800000 to 1600000:
Temp PotEng Press f_avp[1] f_avp[2] f_avp[3] f_avp[4] f_avp[5] f_avp[6]
298.785 -13229.1 -19465.5 -22178.2 -18159.4 -18268.8 -6.12842 -0.305084 -3.03472
Loop time of 2673.18 on 30 procs for 1600000 steps with 4000 atoms

include potential.mod
# NOTE: This script can be modified for different pair styles
# See in.elastic for more info.

# we must undefine any fix ave/* fix before using reset_timestep
if "$(is_defined(fix,avp))" then "unfix avp"
unfix avp
reset_timestep 0

# Choose potential

pair_style  meam
pair_coeff * * library-Al.meam Al Al.meam Al

# Setup neighbor style
neighbor 1.0 nsq
neigh_modify once no every 1 delay 0 check yes

# Setup output

fix avp all ave/time  400 400 160000 c_thermo_press mode vector
thermo		160000
thermo_style custom step temp pe press f_avp[1] f_avp[2] f_avp[3] f_avp[4] f_avp[5] f_avp[6]
thermo_modify norm no

# Setup MD

timestep 0.001
fix 4 all nve
fix 5 all langevin 300 300 0.01 123457

run 480000
Step          Temp          PotEng         Press         f_avp[1]       f_avp[2]       f_avp[3]       f_avp[4]       f_avp[5]       f_avp[6]
0   305.27591     -13226.308     -19170.919      0              0              0              0              0              0
Loop time of 744.13 on 30 procs for 480000 steps with 4000 atoms

# Obtain new stress tensor

variable pxx1 equal f_avp[1]
variable pyy1 equal f_avp[2]
variable pzz1 equal f_avp[3]
variable pxy1 equal f_avp[4]
variable pxz1 equal f_avp[5]
variable pyz1 equal f_avp[6]

# Compute elastic constant from pressure tensor

variable C1pos equal 70.70272927045
variable C2pos equal 34.883295636641
variable C3pos equal 34.573336441615
variable C4pos equal 0.00591722913010227
variable C5pos equal -0.107135551162445
variable C6pos equal 0.0313529951266337

# Combine positive and negative

variable C11 equal 0.5*(77.9207765189728+70.70272927045)
variable C21 equal 0.5*(40.083386886704+34.883295636641)
variable C31 equal 0.5*(39.925323555224+34.573336441615)
variable C41 equal 0.5*(0.0663905637229092+0.00591722913010227)
variable C51 equal 0.5*(0.0878213655486584+-0.107135551162445)
variable C61 equal 0.5*(-0.123722885615913+0.0313529951266337)

# Delete dir to make sure it is not reused

variable dir delete

# uyy Perturbation

variable dir equal 2
include displace.mod
# NOTE: This script should not need to be
# modified. See in.elastic for more info.
#
# Find which reference length to use

variable len0 equal 41.1600464347122

# Reset box and simulation parameters

clear
box tilt large

The 'box' command has been removed and will be ignored

read_restart restart.equil
Reading restart file ...
  restart file = 22 Jul 2025, LAMMPS = 22 Jul 2025
  restoring atom style atomic from restart
  triclinic box = (-0.35439391 -0.33002322 -0.33683177) to (40.854394 40.830023 40.836832) with tilt (0 0 0)
  pair style meam stores no restart info
  4000 atoms
  read_restart CPU = 0.009 seconds
include potential.mod
# NOTE: This script can be modified for different pair styles
# See in.elastic for more info.

# we must undefine any fix ave/* fix before using reset_timestep
if "$(is_defined(fix,avp))" then "unfix avp"
reset_timestep 0

# Choose potential

pair_style  meam
pair_coeff * * library-Al.meam Al Al.meam Al

# Setup neighbor style
neighbor 1.0 nsq
neigh_modify once no every 1 delay 0 check yes

# Setup output

fix avp all ave/time  400 400 160000 c_thermo_press mode vector
thermo		160000
thermo_style custom step temp pe press f_avp[1] f_avp[2] f_avp[3] f_avp[4] f_avp[5] f_avp[6]
thermo_modify norm no

# Setup MD

timestep 0.001
fix 4 all nve
fix 5 all langevin 300 300 0.01 123457

# Negative deformation

variable delta equal -0.01*41.1600464347122
variable deltaxy equal -0.01*xy
variable deltaxz equal -0.01*xz
variable deltayz equal -0.01*yz
change_box all y delta 0 -0.411600464347122 yz delta 0 remap units box
Changing box ...
  triclinic box = (-0.35439391 -0.33002322 -0.33683177) to (40.854394 40.418423 40.836832) with tilt (0 0 0)
  triclinic box = (-0.35439391 -0.33002322 -0.33683177) to (40.854394 40.418423 40.836832) with tilt (0 0 0)

# Run MD

run 1600000
Step          Temp          PotEng         Press         f_avp[1]       f_avp[2]       f_avp[3]       f_avp[4]       f_avp[5]       f_avp[6]
0   307.06101     -13252.182     -9059.1081      0              0              0              0              0              0
Averages over the last 6 of 11 rows, steps 800000 to 1600000:
Temp PotEng Press f_avp[1] f_avp[2] f_avp[3] f_avp[4] f_avp[5] f_avp[6]
297.75 -13256.1 -9452.63 -11110.1 -6873.4 -10758 -1.21078 -1.48653 -1.82951
Loop time of 2887.75 on 30 procs for 1600000 steps with 4000 atoms

include potential.mod
# NOTE: This script can be modified for different pair styles
# See in.elastic for more info.

# we must undefine any fix ave/* fix before using reset_timestep
if "$(is_defined(fix,avp))" then "unfix avp"
unfix avp
reset_timestep 0

# Choose potential

pair_style  meam
pair_coeff * * library-Al.meam Al Al.meam Al

# Setup neighbor style
neighbor 1.0 nsq
neigh_modify once no every 1 delay 0 check yes

# Setup output

fix avp all ave/time  400 400 160000 c_thermo_press mode vector
thermo		160000
thermo_style custom step temp pe press f_avp[1] f_avp[2] f_avp[3] f_avp[4] f_avp[5] f_avp[6]
thermo_modify norm no

# Setup MD

timestep 0.001
fix 4 all nve
fix 5 all langevin 300 300 0.01 123457

run 480000
Step          Temp          PotEng         Press         f_avp[1]       f_avp[2]       f_avp[3]       f_avp[4]       f_avp[5]       f_avp[6]
0   298.34894     -13257.048     -9544.3276      0              0              0              0              0              0
Loop time of 863.013 on 30 procs for 480000 steps with 4000 atoms

# Obtain new stress tensor

variable pxx1 equal f_avp[1]
variable pyy1 equal f_avp[2]
variable pzz1 equal f_avp[3]
variable pxy1 equal f_avp[4]
variable pxz1 equal f_avp[5]
variable pyz1 equal f_avp[6]

# Compute elastic constant from pressure tensor

variable C1neg equal 39.928835469431
variable C2neg equal 77.9488279758835
variable C3neg equal 40.243089542763
variable C4neg equal -0.0300739558210866
variable C5neg equal 0.0301360965141563
variable C6neg equal -0.113166217265711

# Reset box and simulation parameters

clear
box tilt large

The 'box' command has been removed and will be ignored

read_restart restart.equil
Reading restart file ...
  restart file = 22 Jul 2025, LAMMPS = 22 Jul 2025
  restoring atom style atomic from restart
  triclinic box = (-0.35439391 -0.33002322 -0.33683177) to (40.854394 40.830023 40.836832) with tilt (0 0 0)
  pair style meam stores no restart info
  4000 atoms
  read_restart CPU = 0.015 seconds
include potential.mod
# NOTE: This script can be modified for different pair styles
# See in.elastic for more info.

# we must undefine any fix ave/* fix before using reset_timestep
if "$(is_defined(fix,avp))" then "unfix avp"
reset_timestep 0

# Choose potential

pair_style  meam
pair_coeff * * library-Al.meam Al Al.meam Al

# Setup neighbor style
neighbor 1.0 nsq
neigh_modify once no every 1 delay 0 check yes

# Setup output

fix avp all ave/time  400 400 160000 c_thermo_press mode vector
thermo		160000
thermo_style custom step temp pe press f_avp[1] f_avp[2] f_avp[3] f_avp[4] f_avp[5] f_avp[6]
thermo_modify norm no

# Setup MD

timestep 0.001
fix 4 all nve
fix 5 all langevin 300 300 0.01 123457

# Positive deformation

variable delta equal 0.01*41.1600464347122
variable deltaxy equal 0.01*xy
variable deltaxz equal 0.01*xz
variable deltayz equal 0.01*yz
change_box all y delta 0 0.411600464347122 yz delta 0 remap units box
Changing box ...
  triclinic box = (-0.35439391 -0.33002322 -0.33683177) to (40.854394 41.241624 40.836832) with tilt (0 0 0)
  triclinic box = (-0.35439391 -0.33002322 -0.33683177) to (40.854394 41.241624 40.836832) with tilt (0 0 0)

# Run MD

run 1600000
Step          Temp          PotEng         Press         f_avp[1]       f_avp[2]       f_avp[3]       f_avp[4]       f_avp[5]       f_avp[6]
0   307.06101     -13237.373     -20179.373      0              0              0              0              0              0
Averages over the last 6 of 11 rows, steps 800000 to 1600000:
Temp PotEng Press f_avp[1] f_avp[2] f_avp[3] f_avp[4] f_avp[5] f_avp[6]
302.363 -13230.8 -19564.4 -18595.3 -21768.7 -18312.2 2.34077 -2.91113 1.21966
Loop time of 2820.2 on 30 procs for 1600000 steps with 4000 atoms

include potential.mod
# NOTE: This script can be modified for different pair styles
# See in.elastic for more info.

# we must undefine any fix ave/* fix before using reset_timestep
if "$(is_defined(fix,avp))" then "unfix avp"
unfix avp
reset_timestep 0

# Choose potential

pair_style  meam
pair_coeff * * library-Al.meam Al Al.meam Al

# Setup neighbor style
neighbor 1.0 nsq
neigh_modify once no every 1 delay 0 check yes

# Setup output

fix avp all ave/time  400 400 160000 c_thermo_press mode vector
thermo		160000
thermo_style custom step temp pe press f_avp[1] f_avp[2] f_avp[3] f_avp[4] f_avp[5] f_avp[6]
thermo_modify norm no

# Setup MD

timestep 0.001
fix 4 all nve
fix 5 all langevin 300 300 0.01 123457

run 480000
Step          Temp          PotEng         Press         f_avp[1]       f_avp[2]       f_avp[3]       f_avp[4]       f_avp[5]       f_avp[6]
0   303.73658     -13231.056     -19570.451      0              0              0              0              0              0
Loop time of 854.109 on 30 procs for 480000 steps with 4000 atoms

# Obtain new stress tensor

variable pxx1 equal f_avp[1]
variable pyy1 equal f_avp[2]
variable pzz1 equal f_avp[3]
variable pxy1 equal f_avp[4]
variable pxz1 equal f_avp[5]
variable pyz1 equal f_avp[6]

# Compute elastic constant from pressure tensor

variable C1pos equal 35.01957264271
variable C2pos equal 71.225189271134
variable C3pos equal 35.352338103552
variable C4pos equal -0.0126840563778406
variable C5pos equal -0.117631443791579
variable C6pos equal 0.197650640924784

# Combine positive and negative

variable C12 equal 0.5*(39.928835469431+35.01957264271)
variable C22 equal 0.5*(77.9488279758835+71.225189271134)
variable C32 equal 0.5*(40.243089542763+35.352338103552)
variable C42 equal 0.5*(-0.0300739558210866+-0.0126840563778406)
variable C52 equal 0.5*(0.0301360965141563+-0.117631443791579)
variable C62 equal 0.5*(-0.113166217265711+0.197650640924784)

# Delete dir to make sure it is not reused

variable dir delete

# uzz Perturbation

variable dir equal 3
include displace.mod
# NOTE: This script should not need to be
# modified. See in.elastic for more info.
#
# Find which reference length to use

variable len0 equal 41.1736635304057

# Reset box and simulation parameters

clear
box tilt large

The 'box' command has been removed and will be ignored

read_restart restart.equil
Reading restart file ...
  restart file = 22 Jul 2025, LAMMPS = 22 Jul 2025
  restoring atom style atomic from restart
  triclinic box = (-0.35439391 -0.33002322 -0.33683177) to (40.854394 40.830023 40.836832) with tilt (0 0 0)
  pair style meam stores no restart info
  4000 atoms
  read_restart CPU = 0.009 seconds
include potential.mod
# NOTE: This script can be modified for different pair styles
# See in.elastic for more info.

# we must undefine any fix ave/* fix before using reset_timestep
if "$(is_defined(fix,avp))" then "unfix avp"
reset_timestep 0

# Choose potential

pair_style  meam
pair_coeff * * library-Al.meam Al Al.meam Al

# Setup neighbor style
neighbor 1.0 nsq
neigh_modify once no every 1 delay 0 check yes

# Setup output

fix avp all ave/time  400 400 160000 c_thermo_press mode vector
thermo		160000
thermo_style custom step temp pe press f_avp[1] f_avp[2] f_avp[3] f_avp[4] f_avp[5] f_avp[6]
thermo_modify norm no

# Setup MD

timestep 0.001
fix 4 all nve
fix 5 all langevin 300 300 0.01 123457

# Negative deformation

variable delta equal -0.01*41.1736635304057
variable deltaxy equal -0.01*xy
variable deltaxz equal -0.01*xz
variable deltayz equal -0.01*yz
change_box all z delta 0 -0.411736635304057 remap units box
Changing box ...
  triclinic box = (-0.35439391 -0.33002322 -0.33683177) to (40.854394 40.830023 40.425095) with tilt (0 0 0)

# Run MD

run 1600000
Step          Temp          PotEng         Press         f_avp[1]       f_avp[2]       f_avp[3]       f_avp[4]       f_avp[5]       f_avp[6]
0   307.06101     -13252.187     -9054.9541      0              0              0              0              0              0
Averages over the last 6 of 11 rows, steps 800000 to 1600000:
Temp PotEng Press f_avp[1] f_avp[2] f_avp[3] f_avp[4] f_avp[5] f_avp[6]
297.454 -13258 -9649.76 -11117 -10642.4 -6994.7 -0.317122 0.30371 3.56756
Loop time of 2838.2 on 30 procs for 1600000 steps with 4000 atoms

include potential.mod
# NOTE: This script can be modified for different pair styles
# See in.elastic for more info.

# we must undefine any fix ave/* fix before using reset_timestep
if "$(is_defined(fix,avp))" then "unfix avp"
unfix avp
reset_timestep 0

# Choose potential

pair_style  meam
pair_coeff * * library-Al.meam Al Al.meam Al

# Setup neighbor style
neighbor 1.0 nsq
neigh_modify once no every 1 delay 0 check yes

# Setup output

fix avp all ave/time  400 400 160000 c_thermo_press mode vector
thermo		160000
thermo_style custom step temp pe press f_avp[1] f_avp[2] f_avp[3] f_avp[4] f_avp[5] f_avp[6]
thermo_modify norm no

# Setup MD

timestep 0.001
fix 4 all nve
fix 5 all langevin 300 300 0.01 123457

run 480000
Step          Temp          PotEng         Press         f_avp[1]       f_avp[2]       f_avp[3]       f_avp[4]       f_avp[5]       f_avp[6]
0   301.21537     -13255.891     -9378.0592      0              0              0              0              0              0
Loop time of 784.745 on 30 procs for 480000 steps with 4000 atoms

# Obtain new stress tensor

variable pxx1 equal f_avp[1]
variable pyy1 equal f_avp[2]
variable pzz1 equal f_avp[3]
variable pxy1 equal f_avp[4]
variable pxz1 equal f_avp[5]
variable pyz1 equal f_avp[6]

# Compute elastic constant from pressure tensor

variable C1neg equal 39.940227800673
variable C2neg equal 40.313283325528
variable C3neg equal 77.9950337845838
variable C4neg equal 0.0485902652221052
variable C5neg equal 0.0668878916872977
variable C6neg equal -0.0158460230750676

# Reset box and simulation parameters

clear
box tilt large

The 'box' command has been removed and will be ignored

read_restart restart.equil
Reading restart file ...
  restart file = 22 Jul 2025, LAMMPS = 22 Jul 2025
  restoring atom style atomic from restart
  triclinic box = (-0.35439391 -0.33002322 -0.33683177) to (40.854394 40.830023 40.836832) with tilt (0 0 0)
  pair style meam stores no restart info
  4000 atoms
  read_restart CPU = 0.022 seconds
include potential.mod
# NOTE: This script can be modified for different pair styles
# See in.elastic for more info.

# we must undefine any fix ave/* fix before using reset_timestep
if "$(is_defined(fix,avp))" then "unfix avp"
reset_timestep 0

# Choose potential

pair_style  meam
pair_coeff * * library-Al.meam Al Al.meam Al

# Setup neighbor style
neighbor 1.0 nsq
neigh_modify once no every 1 delay 0 check yes

# Setup output

fix avp all ave/time  400 400 160000 c_thermo_press mode vector
thermo		160000
thermo_style custom step temp pe press f_avp[1] f_avp[2] f_avp[3] f_avp[4] f_avp[5] f_avp[6]
thermo_modify norm no

# Setup MD

timestep 0.001
fix 4 all nve
fix 5 all langevin 300 300 0.01 123457

# Positive deformation

variable delta equal 0.01*41.1736635304057
variable deltaxy equal 0.01*xy
variable deltaxz equal 0.01*xz
variable deltayz equal 0.01*yz
change_box all z delta 0 0.411736635304057 remap units box
Changing box ...
  triclinic box = (-0.35439391 -0.33002322 -0.33683177) to (40.854394 40.830023 41.248568) with tilt (0 0 0)

# Run MD

run 1600000
Step          Temp          PotEng         Press         f_avp[1]       f_avp[2]       f_avp[3]       f_avp[4]       f_avp[5]       f_avp[6]
0   307.06101     -13237.356     -20182.317      0              0              0              0              0              0
Averages over the last 6 of 11 rows, steps 800000 to 1600000:
Temp PotEng Press f_avp[1] f_avp[2] f_avp[3] f_avp[4] f_avp[5] f_avp[6]
297.09 -13230.6 -19582 -18574.1 -18187.4 -21876 3.20003 -4.54087 -1.97547
Loop time of 2751.96 on 30 procs for 1600000 steps with 4000 atoms

include potential.mod
# NOTE: This script can be modified for different pair styles
# See in.elastic for more info.

# we must undefine any fix ave/* fix before using reset_timestep
if "$(is_defined(fix,avp))" then "unfix avp"
unfix avp
reset_timestep 0

# Choose potential

pair_style  meam
pair_coeff * * library-Al.meam Al Al.meam Al

# Setup neighbor style
neighbor 1.0 nsq
neigh_modify once no every 1 delay 0 check yes

# Setup output

fix avp all ave/time  400 400 160000 c_thermo_press mode vector
thermo		160000
thermo_style custom step temp pe press f_avp[1] f_avp[2] f_avp[3] f_avp[4] f_avp[5] f_avp[6]
thermo_modify norm no

# Setup MD

timestep 0.001
fix 4 all nve
fix 5 all langevin 300 300 0.01 123457

run 480000
Step          Temp          PotEng         Press         f_avp[1]       f_avp[2]       f_avp[3]       f_avp[4]       f_avp[5]       f_avp[6]
0   297.49535     -13227.45      -19256.74       0              0              0              0              0              0
Loop time of 792.344 on 30 procs for 480000 steps with 4000 atoms

# Obtain new stress tensor

variable pxx1 equal f_avp[1]
variable pyy1 equal f_avp[2]
variable pzz1 equal f_avp[3]
variable pxy1 equal f_avp[4]
variable pxz1 equal f_avp[5]
variable pyz1 equal f_avp[6]

# Compute elastic constant from pressure tensor

variable C1pos equal 34.786070286142
variable C2pos equal 35.374274245843
variable C3pos equal 70.969811839323
variable C4pos equal 0.0675256704117351
variable C5pos equal -0.108285956255907
variable C6pos equal 0.0670433929276136

# Combine positive and negative

variable C13 equal 0.5*(39.940227800673+34.786070286142)
variable C23 equal 0.5*(40.313283325528+35.374274245843)
variable C33 equal 0.5*(77.9950337845838+70.969811839323)
variable C43 equal 0.5*(0.0485902652221052+0.0675256704117351)
variable C53 equal 0.5*(0.0668878916872977+-0.108285956255907)
variable C63 equal 0.5*(-0.0158460230750676+0.0670433929276136)

# Delete dir to make sure it is not reused

variable dir delete

# uyz Perturbation

variable dir equal 4
include displace.mod
# NOTE: This script should not need to be
# modified. See in.elastic for more info.
#
# Find which reference length to use

variable len0 equal 41.1736635304057

# Reset box and simulation parameters

clear
box tilt large

The 'box' command has been removed and will be ignored

read_restart restart.equil
Reading restart file ...
  restart file = 22 Jul 2025, LAMMPS = 22 Jul 2025
  restoring atom style atomic from restart
  triclinic box = (-0.35439391 -0.33002322 -0.33683177) to (40.854394 40.830023 40.836832) with tilt (0 0 0)
  pair style meam stores no restart info
  4000 atoms
  read_restart CPU = 0.009 seconds
include potential.mod
# NOTE: This script can be modified for different pair styles
# See in.elastic for more info.

# we must undefine any fix ave/* fix before using reset_timestep
if "$(is_defined(fix,avp))" then "unfix avp"
reset_timestep 0

# Choose potential

pair_style  meam
pair_coeff * * library-Al.meam Al Al.meam Al

# Setup neighbor style
neighbor 1.0 nsq
neigh_modify once no every 1 delay 0 check yes

# Setup output

fix avp all ave/time  400 400 160000 c_thermo_press mode vector
thermo		160000
thermo_style custom step temp pe press f_avp[1] f_avp[2] f_avp[3] f_avp[4] f_avp[5] f_avp[6]
thermo_modify norm no

# Setup MD

timestep 0.001
fix 4 all nve
fix 5 all langevin 300 300 0.01 123457

# Negative deformation

variable delta equal -0.01*41.1736635304057
variable deltaxy equal -0.01*xy
variable deltaxz equal -0.01*xz
variable deltayz equal -0.01*yz
change_box all yz delta -0.411736635304057 remap units box
Changing box ...
  triclinic box = (-0.35439391 -0.33002322 -0.33683177) to (40.854394 40.830023 40.836832) with tilt (0 0 -0.41173664)

# Run MD

run 1600000
Step          Temp          PotEng         Press         f_avp[1]       f_avp[2]       f_avp[3]       f_avp[4]       f_avp[5]       f_avp[6]
0   307.06101     -13245.899     -14804.571      0              0              0              0              0              0
Averages over the last 6 of 11 rows, steps 800000 to 1600000:
Temp PotEng Press f_avp[1] f_avp[2] f_avp[3] f_avp[4] f_avp[5] f_avp[6]
298.622 -13245.1 -14760.8 -15086.5 -14537.7 -14624.7 0.419118 1.75702 2858.52
Loop time of 2708.72 on 30 procs for 1600000 steps with 4000 atoms

include potential.mod
# NOTE: This script can be modified for different pair styles
# See in.elastic for more info.

# we must undefine any fix ave/* fix before using reset_timestep
if "$(is_defined(fix,avp))" then "unfix avp"
unfix avp
reset_timestep 0

# Choose potential

pair_style  meam
pair_coeff * * library-Al.meam Al Al.meam Al

# Setup neighbor style
neighbor 1.0 nsq
neigh_modify once no every 1 delay 0 check yes

# Setup output

fix avp all ave/time  400 400 160000 c_thermo_press mode vector
thermo		160000
thermo_style custom step temp pe press f_avp[1] f_avp[2] f_avp[3] f_avp[4] f_avp[5] f_avp[6]
thermo_modify norm no

# Setup MD

timestep 0.001
fix 4 all nve
fix 5 all langevin 300 300 0.01 123457

run 480000
Step          Temp          PotEng         Press         f_avp[1]       f_avp[2]       f_avp[3]       f_avp[4]       f_avp[5]       f_avp[6]
0   299.99792     -13244.187     -14607.06       0              0              0              0              0              0
Loop time of 748.565 on 30 procs for 480000 steps with 4000 atoms

# Obtain new stress tensor

variable pxx1 equal f_avp[1]
variable pyy1 equal f_avp[2]
variable pzz1 equal f_avp[3]
variable pxy1 equal f_avp[4]
variable pxz1 equal f_avp[5]
variable pyz1 equal f_avp[6]

# Compute elastic constant from pressure tensor

variable C1neg equal 0.155168350825006
variable C2neg equal 1.21151589396701
variable C3neg equal 1.64302246274099
variable C4neg equal 28.6488373655892
variable C5neg equal -0.000740866241191194
variable C6neg equal -0.0727818959532374

# Reset box and simulation parameters

clear
box tilt large

The 'box' command has been removed and will be ignored

read_restart restart.equil
Reading restart file ...
  restart file = 22 Jul 2025, LAMMPS = 22 Jul 2025
  restoring atom style atomic from restart
  triclinic box = (-0.35439391 -0.33002322 -0.33683177) to (40.854394 40.830023 40.836832) with tilt (0 0 0)
  pair style meam stores no restart info
  4000 atoms
  read_restart CPU = 0.015 seconds
include potential.mod
# NOTE: This script can be modified for different pair styles
# See in.elastic for more info.

# we must undefine any fix ave/* fix before using reset_timestep
if "$(is_defined(fix,avp))" then "unfix avp"
reset_timestep 0

# Choose potential

pair_style  meam
pair_coeff * * library-Al.meam Al Al.meam Al

# Setup neighbor style
neighbor 1.0 nsq
neigh_modify once no every 1 delay 0 check yes

# Setup output

fix avp all ave/time  400 400 160000 c_thermo_press mode vector
thermo		160000
thermo_style custom step temp pe press f_avp[1] f_avp[2] f_avp[3] f_avp[4] f_avp[5] f_avp[6]
thermo_modify norm no

# Setup MD

timestep 0.001
fix 4 all nve
fix 5 all langevin 300 300 0.01 123457

# Positive deformation

variable delta equal 0.01*41.1736635304057
variable deltaxy equal 0.01*xy
variable deltaxz equal 0.01*xz
variable deltayz equal 0.01*yz
change_box all yz delta 0.411736635304057 remap units box
Changing box ...
  triclinic box = (-0.35439391 -0.33002322 -0.33683177) to (40.854394 40.830023 40.836832) with tilt (0 0 0.41173664)

# Run MD

run 1600000
Step          Temp          PotEng         Press         f_avp[1]       f_avp[2]       f_avp[3]       f_avp[4]       f_avp[5]       f_avp[6]
0   307.06101     -13245.858     -14804.044      0              0              0              0              0              0
Averages over the last 6 of 11 rows, steps 800000 to 1600000:
Temp PotEng Press f_avp[1] f_avp[2] f_avp[3] f_avp[4] f_avp[5] f_avp[6]
298.906 -13246.9 -14940.1 -15096.8 -14541.8 -14630.1 -0.958376 0.934528 -2861.11
Loop time of 2477.75 on 30 procs for 1600000 steps with 4000 atoms

include potential.mod
# NOTE: This script can be modified for different pair styles
# See in.elastic for more info.

# we must undefine any fix ave/* fix before using reset_timestep
if "$(is_defined(fix,avp))" then "unfix avp"
unfix avp
reset_timestep 0

# Choose potential

pair_style  meam
pair_coeff * * library-Al.meam Al Al.meam Al

# Setup neighbor style
neighbor 1.0 nsq
neigh_modify once no every 1 delay 0 check yes

# Setup output

fix avp all ave/time  400 400 160000 c_thermo_press mode vector
thermo		160000
thermo_style custom step temp pe press f_avp[1] f_avp[2] f_avp[3] f_avp[4] f_avp[5] f_avp[6]
thermo_modify norm no

# Setup MD

timestep 0.001
fix 4 all nve
fix 5 all langevin 300 300 0.01 123457

run 480000
Step          Temp          PotEng         Press         f_avp[1]       f_avp[2]       f_avp[3]       f_avp[4]       f_avp[5]       f_avp[6]
0   297.39648     -13247.184     -14965.396      0              0              0              0              0              0
Loop time of 755.804 on 30 procs for 480000 steps with 4000 atoms

# Obtain new stress tensor

variable pxx1 equal f_avp[1]
variable pyy1 equal f_avp[2]
variable pzz1 equal f_avp[3]
variable pxy1 equal f_avp[4]
variable pxz1 equal f_avp[5]
variable pyz1 equal f_avp[6]

# Compute elastic constant from pressure tensor

variable C1pos equal -0.18846544432201
variable C2pos equal -1.14926180291501
variable C3pos equal -1.59522726917099
variable C4pos equal 28.6271573988253
variable C5pos equal -0.0539368697497053
variable C6pos equal 0.0646528623337976

# Combine positive and negative

variable C14 equal 0.5*(0.155168350825006+-0.18846544432201)
variable C24 equal 0.5*(1.21151589396701+-1.14926180291501)
variable C34 equal 0.5*(1.64302246274099+-1.59522726917099)
variable C44 equal 0.5*(28.6488373655892+28.6271573988253)
variable C54 equal 0.5*(-0.000740866241191194+-0.0539368697497053)
variable C64 equal 0.5*(-0.0727818959532374+0.0646528623337976)

# Delete dir to make sure it is not reused

variable dir delete

# uxz Perturbation

variable dir equal 5
include displace.mod
# NOTE: This script should not need to be
# modified. See in.elastic for more info.
#
# Find which reference length to use

variable len0 equal 41.1736635304057

# Reset box and simulation parameters

clear
box tilt large

The 'box' command has been removed and will be ignored

read_restart restart.equil
Reading restart file ...
  restart file = 22 Jul 2025, LAMMPS = 22 Jul 2025
  restoring atom style atomic from restart
  triclinic box = (-0.35439391 -0.33002322 -0.33683177) to (40.854394 40.830023 40.836832) with tilt (0 0 0)
  pair style meam stores no restart info
  4000 atoms
  read_restart CPU = 0.009 seconds
include potential.mod
# NOTE: This script can be modified for different pair styles
# See in.elastic for more info.

# we must undefine any fix ave/* fix before using reset_timestep
if "$(is_defined(fix,avp))" then "unfix avp"
reset_timestep 0

# Choose potential

pair_style  meam
pair_coeff * * library-Al.meam Al Al.meam Al

# Setup neighbor style
neighbor 1.0 nsq
neigh_modify once no every 1 delay 0 check yes

# Setup output

fix avp all ave/time  400 400 160000 c_thermo_press mode vector
thermo		160000
thermo_style custom step temp pe press f_avp[1] f_avp[2] f_avp[3] f_avp[4] f_avp[5] f_avp[6]
thermo_modify norm no

# Setup MD

timestep 0.001
fix 4 all nve
fix 5 all langevin 300 300 0.01 123457

# Negative deformation

variable delta equal -0.01*41.1736635304057
variable deltaxy equal -0.01*xy
variable deltaxz equal -0.01*xz
variable deltayz equal -0.01*yz
change_box all xz delta -0.411736635304057 remap units box
Changing box ...
  triclinic box = (-0.35439391 -0.33002322 -0.33683177) to (40.854394 40.830023 40.836832) with tilt (0 -0.41173664 0)

# Run MD

run 1600000
Step          Temp          PotEng         Press         f_avp[1]       f_avp[2]       f_avp[3]       f_avp[4]       f_avp[5]       f_avp[6]
0   307.06101     -13245.818     -14797.174      0              0              0              0              0              0
Averages over the last 6 of 11 rows, steps 800000 to 1600000:
Temp PotEng Press f_avp[1] f_avp[2] f_avp[3] f_avp[4] f_avp[5] f_avp[6]
302.251 -13246 -14831.4 -14981.6 -14657.9 -14625.8 2.5648 2828.47 5.43592
Loop time of 2896.28 on 30 procs for 1600000 steps with 4000 atoms

include potential.mod
# NOTE: This script can be modified for different pair styles
# See in.elastic for more info.

# we must undefine any fix ave/* fix before using reset_timestep
if "$(is_defined(fix,avp))" then "unfix avp"
unfix avp
reset_timestep 0

# Choose potential

pair_style  meam
pair_coeff * * library-Al.meam Al Al.meam Al

# Setup neighbor style
neighbor 1.0 nsq
neigh_modify once no every 1 delay 0 check yes

# Setup output

fix avp all ave/time  400 400 160000 c_thermo_press mode vector
thermo		160000
thermo_style custom step temp pe press f_avp[1] f_avp[2] f_avp[3] f_avp[4] f_avp[5] f_avp[6]
thermo_modify norm no

# Setup MD

timestep 0.001
fix 4 all nve
fix 5 all langevin 300 300 0.01 123457

run 480000
Step          Temp          PotEng         Press         f_avp[1]       f_avp[2]       f_avp[3]       f_avp[4]       f_avp[5]       f_avp[6]
0   295.02189     -13244.04      -14625.288      0              0              0              0              0              0
Loop time of 855.657 on 30 procs for 480000 steps with 4000 atoms

# Obtain new stress tensor

variable pxx1 equal f_avp[1]
variable pyy1 equal f_avp[2]
variable pzz1 equal f_avp[3]
variable pxy1 equal f_avp[4]
variable pxz1 equal f_avp[5]
variable pyz1 equal f_avp[6]

# Compute elastic constant from pressure tensor

variable C1neg equal 1.22446042801601
variable C2neg equal 0.101110566464013
variable C3neg equal 1.70645299465399
variable C4neg equal -0.0208455078714848
variable C5neg equal 28.3147121439469
variable C6neg equal -0.151982660270856

# Reset box and simulation parameters

clear
box tilt large

The 'box' command has been removed and will be ignored

read_restart restart.equil
Reading restart file ...
  restart file = 22 Jul 2025, LAMMPS = 22 Jul 2025
  restoring atom style atomic from restart
  triclinic box = (-0.35439391 -0.33002322 -0.33683177) to (40.854394 40.830023 40.836832) with tilt (0 0 0)
  pair style meam stores no restart info
  4000 atoms
  read_restart CPU = 0.016 seconds
include potential.mod
# NOTE: This script can be modified for different pair styles
# See in.elastic for more info.

# we must undefine any fix ave/* fix before using reset_timestep
if "$(is_defined(fix,avp))" then "unfix avp"
reset_timestep 0

# Choose potential

pair_style  meam
pair_coeff * * library-Al.meam Al Al.meam Al

# Setup neighbor style
neighbor 1.0 nsq
neigh_modify once no every 1 delay 0 check yes

# Setup output

fix avp all ave/time  400 400 160000 c_thermo_press mode vector
thermo		160000
thermo_style custom step temp pe press f_avp[1] f_avp[2] f_avp[3] f_avp[4] f_avp[5] f_avp[6]
thermo_modify norm no

# Setup MD

timestep 0.001
fix 4 all nve
fix 5 all langevin 300 300 0.01 123457

# Positive deformation

variable delta equal 0.01*41.1736635304057
variable deltaxy equal 0.01*xy
variable deltaxz equal 0.01*xz
variable deltayz equal 0.01*yz
change_box all xz delta 0.411736635304057 remap units box
Changing box ...
  triclinic box = (-0.35439391 -0.33002322 -0.33683177) to (40.854394 40.830023 40.836832) with tilt (0 0.41173664 0)

# Run MD

run 1600000
Step          Temp          PotEng         Press         f_avp[1]       f_avp[2]       f_avp[3]       f_avp[4]       f_avp[5]       f_avp[6]
0   307.06101     -13245.951     -14811.549      0              0              0              0              0              0
Averages over the last 6 of 11 rows, steps 800000 to 1600000:
Temp PotEng Press f_avp[1] f_avp[2] f_avp[3] f_avp[4] f_avp[5] f_avp[6]
304.693 -13245.4 -14742.8 -14984 -14655.8 -14630.9 -5.85227 -2832.36 -2.84706
Loop time of 2662.44 on 30 procs for 1600000 steps with 4000 atoms

include potential.mod
# NOTE: This script can be modified for different pair styles
# See in.elastic for more info.

# we must undefine any fix ave/* fix before using reset_timestep
if "$(is_defined(fix,avp))" then "unfix avp"
unfix avp
reset_timestep 0

# Choose potential

pair_style  meam
pair_coeff * * library-Al.meam Al Al.meam Al

# Setup neighbor style
neighbor 1.0 nsq
neigh_modify once no every 1 delay 0 check yes

# Setup output

fix avp all ave/time  400 400 160000 c_thermo_press mode vector
thermo		160000
thermo_style custom step temp pe press f_avp[1] f_avp[2] f_avp[3] f_avp[4] f_avp[5] f_avp[6]
thermo_modify norm no

# Setup MD

timestep 0.001
fix 4 all nve
fix 5 all langevin 300 300 0.01 123457

run 480000
Step          Temp          PotEng         Press         f_avp[1]       f_avp[2]       f_avp[3]       f_avp[4]       f_avp[5]       f_avp[6]
0   310.08187     -13249.216     -15051.672      0              0              0              0              0              0
Loop time of 790.609 on 30 procs for 480000 steps with 4000 atoms

# Obtain new stress tensor

variable pxx1 equal f_avp[1]
variable pyy1 equal f_avp[2]
variable pzz1 equal f_avp[3]
variable pxy1 equal f_avp[4]
variable pxz1 equal f_avp[5]
variable pyz1 equal f_avp[6]

# Compute elastic constant from pressure tensor

variable C1pos equal -1.33842678392801
variable C2pos equal -0.25496969350701
variable C3pos equal -1.70049162236199
variable C4pos equal 0.0532013929555778
variable C5pos equal 28.1271111808779
variable C6pos equal 0.250146178014106

# Combine positive and negative

variable C15 equal 0.5*(1.22446042801601+-1.33842678392801)
variable C25 equal 0.5*(0.101110566464013+-0.25496969350701)
variable C35 equal 0.5*(1.70645299465399+-1.70049162236199)
variable C45 equal 0.5*(-0.0208455078714848+0.0532013929555778)
variable C55 equal 0.5*(28.3147121439469+28.1271111808779)
variable C65 equal 0.5*(-0.151982660270856+0.250146178014106)

# Delete dir to make sure it is not reused

variable dir delete

# uxy Perturbation

variable dir equal 6
include displace.mod
# NOTE: This script should not need to be
# modified. See in.elastic for more info.
#
# Find which reference length to use

variable len0 equal 41.1600464347122

# Reset box and simulation parameters

clear
box tilt large

The 'box' command has been removed and will be ignored

read_restart restart.equil
Reading restart file ...
  restart file = 22 Jul 2025, LAMMPS = 22 Jul 2025
  restoring atom style atomic from restart
  triclinic box = (-0.35439391 -0.33002322 -0.33683177) to (40.854394 40.830023 40.836832) with tilt (0 0 0)
  pair style meam stores no restart info
  4000 atoms
  read_restart CPU = 0.009 seconds
include potential.mod
# NOTE: This script can be modified for different pair styles
# See in.elastic for more info.

# we must undefine any fix ave/* fix before using reset_timestep
if "$(is_defined(fix,avp))" then "unfix avp"
reset_timestep 0

# Choose potential

pair_style  meam
pair_coeff * * library-Al.meam Al Al.meam Al

# Setup neighbor style
neighbor 1.0 nsq
neigh_modify once no every 1 delay 0 check yes

# Setup output

fix avp all ave/time  400 400 160000 c_thermo_press mode vector
thermo		160000
thermo_style custom step temp pe press f_avp[1] f_avp[2] f_avp[3] f_avp[4] f_avp[5] f_avp[6]
thermo_modify norm no

# Setup MD

timestep 0.001
fix 4 all nve
fix 5 all langevin 300 300 0.01 123457

# Negative deformation

variable delta equal -0.01*41.1600464347122
variable deltaxy equal -0.01*xy
variable deltaxz equal -0.01*xz
variable deltayz equal -0.01*yz
change_box all xy delta -0.411600464347122 remap units box
Changing box ...
  triclinic box = (-0.35439391 -0.33002322 -0.33683177) to (40.854394 40.830023 40.836832) with tilt (-0.41160046 0 0)

# Run MD

run 1600000
Step          Temp          PotEng         Press         f_avp[1]       f_avp[2]       f_avp[3]       f_avp[4]       f_avp[5]       f_avp[6]
0   307.06101     -13245.855     -14800.85       0              0              0              0              0              0
Averages over the last 6 of 11 rows, steps 800000 to 1600000:
Temp PotEng Press f_avp[1] f_avp[2] f_avp[3] f_avp[4] f_avp[5] f_avp[6]
300.114 -13245.1 -14764.6 -14976.7 -14499.3 -14775.6 2842.64 0.645995 -0.912123
Loop time of 2577.53 on 30 procs for 1600000 steps with 4000 atoms

include potential.mod
# NOTE: This script can be modified for different pair styles
# See in.elastic for more info.

# we must undefine any fix ave/* fix before using reset_timestep
if "$(is_defined(fix,avp))" then "unfix avp"
unfix avp
reset_timestep 0

# Choose potential

pair_style  meam
pair_coeff * * library-Al.meam Al Al.meam Al

# Setup neighbor style
neighbor 1.0 nsq
neigh_modify once no every 1 delay 0 check yes

# Setup output

fix avp all ave/time  400 400 160000 c_thermo_press mode vector
thermo		160000
thermo_style custom step temp pe press f_avp[1] f_avp[2] f_avp[3] f_avp[4] f_avp[5] f_avp[6]
thermo_modify norm no

# Setup MD

timestep 0.001
fix 4 all nve
fix 5 all langevin 300 300 0.01 123457

run 480000
Step          Temp          PotEng         Press         f_avp[1]       f_avp[2]       f_avp[3]       f_avp[4]       f_avp[5]       f_avp[6]
0   303.59385     -13242.796     -14566.594      0              0              0              0              0              0
Loop time of 765.193 on 30 procs for 480000 steps with 4000 atoms

# Obtain new stress tensor

variable pxx1 equal f_avp[1]
variable pyy1 equal f_avp[2]
variable pzz1 equal f_avp[3]
variable pxy1 equal f_avp[4]
variable pxz1 equal f_avp[5]
variable pyz1 equal f_avp[6]

# Compute elastic constant from pressure tensor

variable C1neg equal 1.20816559400701
variable C2neg equal 1.453427179753
variable C3neg equal 0.119404693348988
variable C4neg equal 0.0944048967836808
variable C5neg equal -0.0519623899590788
variable C6neg equal 28.3036792031654

# Reset box and simulation parameters

clear
box tilt large

The 'box' command has been removed and will be ignored

read_restart restart.equil
Reading restart file ...
  restart file = 22 Jul 2025, LAMMPS = 22 Jul 2025
  restoring atom style atomic from restart
  triclinic box = (-0.35439391 -0.33002322 -0.33683177) to (40.854394 40.830023 40.836832) with tilt (0 0 0)
  pair style meam stores no restart info
  4000 atoms
  read_restart CPU = 0.017 seconds
include potential.mod
# NOTE: This script can be modified for different pair styles
# See in.elastic for more info.

# we must undefine any fix ave/* fix before using reset_timestep
if "$(is_defined(fix,avp))" then "unfix avp"
reset_timestep 0

# Choose potential

pair_style  meam
pair_coeff * * library-Al.meam Al Al.meam Al

# Setup neighbor style
neighbor 1.0 nsq
neigh_modify once no every 1 delay 0 check yes

# Setup output

fix avp all ave/time  400 400 160000 c_thermo_press mode vector
thermo		160000
thermo_style custom step temp pe press f_avp[1] f_avp[2] f_avp[3] f_avp[4] f_avp[5] f_avp[6]
thermo_modify norm no

# Setup MD

timestep 0.001
fix 4 all nve
fix 5 all langevin 300 300 0.01 123457

# Positive deformation

variable delta equal 0.01*41.1600464347122
variable deltaxy equal 0.01*xy
variable deltaxz equal 0.01*xz
variable deltayz equal 0.01*yz
change_box all xy delta 0.411600464347122 remap units box
Changing box ...
  triclinic box = (-0.35439391 -0.33002322 -0.33683177) to (40.854394 40.830023 40.836832) with tilt (0.41160046 0 0)

# Run MD

run 1600000
Step          Temp          PotEng         Press         f_avp[1]       f_avp[2]       f_avp[3]       f_avp[4]       f_avp[5]       f_avp[6]
0   307.06101     -13245.91      -14807.893      0              0              0              0              0              0
Averages over the last 6 of 11 rows, steps 800000 to 1600000:
Temp PotEng Press f_avp[1] f_avp[2] f_avp[3] f_avp[4] f_avp[5] f_avp[6]
298.836 -13245.6 -14820.5 -14980.3 -14499.2 -14774.2 -2843.52 1.37899 0.817934
Loop time of 2591.03 on 30 procs for 1600000 steps with 4000 atoms

include potential.mod
# NOTE: This script can be modified for different pair styles
# See in.elastic for more info.

# we must undefine any fix ave/* fix before using reset_timestep
if "$(is_defined(fix,avp))" then "unfix avp"
unfix avp
reset_timestep 0

# Choose potential

pair_style  meam
pair_coeff * * library-Al.meam Al Al.meam Al

# Setup neighbor style
neighbor 1.0 nsq
neigh_modify once no every 1 delay 0 check yes

# Setup output

fix avp all ave/time  400 400 160000 c_thermo_press mode vector
thermo		160000
thermo_style custom step temp pe press f_avp[1] f_avp[2] f_avp[3] f_avp[4] f_avp[5] f_avp[6]
thermo_modify norm no

# Setup MD

timestep 0.001
fix 4 all nve
fix 5 all langevin 300 300 0.01 123457

run 480000
Step          Temp          PotEng         Press         f_avp[1]       f_avp[2]       f_avp[3]       f_avp[4]       f_avp[5]       f_avp[6]
0   296.14957     -13242.457     -14529.226      0              0              0              0              0              0
Loop time of 766.162 on 30 procs for 480000 steps with 4000 atoms

# Obtain new stress tensor

variable pxx1 equal f_avp[1]
variable pyy1 equal f_avp[2]
variable pzz1 equal f_avp[3]
variable pxy1 equal f_avp[4]
variable pxz1 equal f_avp[5]
variable pyz1 equal f_avp[6]

# Compute elastic constant from pressure tensor

variable C1pos equal -1.31322680084
variable C2pos equal -1.548932154225
variable C3pos equal -0.260510657431987
variable C4pos equal -0.199513813802269
variable C5pos equal -0.0666355768601585
variable C6pos equal 28.5732684917576

# Combine positive and negative

variable C16 equal 0.5*(1.20816559400701+-1.31322680084)
variable C26 equal 0.5*(1.453427179753+-1.548932154225)
variable C36 equal 0.5*(0.119404693348988+-0.260510657431987)
variable C46 equal 0.5*(0.0944048967836808+-0.199513813802269)
variable C56 equal 0.5*(-0.0519623899590788+-0.0666355768601585)
variable C66 equal 0.5*(28.3036792031654+28.5732684917576)

# Delete dir to make sure it is not reused

variable dir delete

# Output final values

variable C11all equal 74.3117528947114
variable C22all equal 74.5870086235088
variable C33all equal 74.4824228119534

variable C12all equal 0.5*(37.4742040560705+37.4833412616725)
variable C13all equal 0.5*(37.3631490434075+37.2493299984195)
variable C23all equal 0.5*(37.8437787856855+37.7977138231575)

variable C44all equal 28.6379973822072
variable C55all equal 28.2209116624124
variable C66all equal 28.4384738474615

variable C14all equal 0.5*(-0.016648546748502+0.0361538964265057)
variable C15all equal 0.5*(-0.0569831779559999+-0.0096570928068933)
variable C16all equal 0.5*(-0.0525306034164951+-0.0461849452446397)

variable C24all equal 0.5*(0.0311270455260001+-0.0213790060994636)
variable C25all equal 0.5*(-0.0769295635214985+-0.0437476736387113)
variable C26all equal 0.5*(-0.047752487236+0.0422422118295365)

variable C34all equal 0.5*(0.023897596785+0.0580579678169202)
variable C35all equal 0.5*(0.002980686146+-0.0206990322843047)
variable C36all equal 0.5*(-0.0705529820414995+0.025598684926273)

variable C45all equal 0.5*(0.0161779425420465+-0.0273388679954482)
variable C46all equal 0.5*(-0.0525544585092941+-0.0040645168097199)
variable C56all equal 0.5*(-0.0592989834096187+0.049081758871625)

# Average moduli for cubic crystals

variable C11cubic equal (74.3117528947114+74.5870086235088+74.4824228119534)/3.0
variable C12cubic equal (37.4787726588715+37.3062395209135+37.8207463044215)/3.0
variable C44cubic equal (28.6379973822072+28.2209116624124+28.4384738474615)/3.0

variable bulkmodulus equal (74.4603947767245+2*37.5352528280688)/3.0
variable shearmodulus1 equal 28.432460964027
variable shearmodulus2 equal (74.4603947767245-37.5352528280688)/2.0
variable poissonratio equal 1.0/(1.0+74.4603947767245/37.5352528280688)

# For Stillinger-Weber silicon, the analytical results
# are known to be (E. R. Cowley, 1988):
#               C11 = 151.4 GPa
#               C12 = 76.4 GPa
#               C44 = 56.4 GPa

print "========================================="
=========================================
print "Components of the Elastic Constant Tensor"
Components of the Elastic Constant Tensor
print "========================================="
=========================================

Elastic Constant C11all = 74.3117528947114 GPa
Elastic Constant C22all = 74.5870086235088 GPa
Elastic Constant C33all = 74.4824228119534 GPa

Elastic Constant C12all = 37.4787726588715 GPa
Elastic Constant C13all = 37.3062395209135 GPa
Elastic Constant C23all = 37.8207463044215 GPa

Elastic Constant C44all = 28.6379973822072 GPa
Elastic Constant C55all = 28.2209116624124 GPa
Elastic Constant C66all = 28.4384738474615 GPa

Elastic Constant C14all = 0.00975267483900185 GPa
Elastic Constant C15all = -0.0333201353814466 GPa
Elastic Constant C16all = -0.0493577743305674 GPa

Elastic Constant C24all = 0.00487401971326825 GPa
Elastic Constant C25all = -0.0603386185801049 GPa
Elastic Constant C26all = -0.00275513770323175 GPa

Elastic Constant C34all = 0.0409777823009601 GPa
Elastic Constant C35all = -0.00885917306915235 GPa
Elastic Constant C36all = -0.0224771485576132 GPa

Elastic Constant C45all = -0.00558046272670085 GPa
Elastic Constant C46all = -0.028309487659507 GPa
Elastic Constant C56all = -0.00510861226899685 GPa

print "========================================="
=========================================
print "Average properties for a cubic crystal"
Average properties for a cubic crystal
print "========================================="
=========================================

Bulk Modulus = 49.8436334776207 GPa
Shear Modulus 1 = 28.432460964027 GPa
Shear Modulus 2 = 18.4625709743278 GPa
Poisson Ratio = 0.335149210088253
